
---------- Begin Simulation Statistics ----------
simSeconds                                   0.031661                       # Number of seconds simulated (Second)
simTicks                                  31660648110                       # Number of ticks simulated (Tick)
finalTick                                 31660648110                       # Number of ticks from beginning of simulation (restored from checkpoints and never reset) (Tick)
simFreq                                  1000000000000                       # The number of ticks per simulated second ((Tick/Second))
hostSeconds                                      1.08                       # Real time elapsed on the host (Second)
hostTickRate                              29190598082                       # The number of ticks simulated per host second (ticks/s) ((Tick/Second))
hostMemory                                     654688                       # Number of bytes of host memory used (Byte)
simInsts                                       443675                       # Number of instructions simulated (Count)
simOps                                         537149                       # Number of ops (including micro ops) simulated (Count)
hostInstRate                                   405064                       # Simulator instruction rate (inst/s) ((Count/Second))
hostOpRate                                     490120                       # Simulator op (including micro ops) rate (op/s) ((Count/Second))
system.clk_domain.clock                           455                       # Clock period in ticks (Tick)
system.clk_domain.voltage_domain.voltage            1                       # Voltage in Volts (Volt)
system.cpu.numCycles                         69583842                       # Number of cpu cycles simulated (Cycle)
system.cpu.cpi                             156.828096                       # CPI: cycles per instruction (core level) ((Cycle/Count))
system.cpu.ipc                               0.006376                       # IPC: instructions per cycle (core level) ((Count/Cycle))
system.cpu.numWorkItemsStarted                      0                       # Number of work items this cpu started (Count)
system.cpu.numWorkItemsCompleted                    0                       # Number of work items this cpu completed (Count)
system.cpu.commitStats0.numInsts               443695                       # Number of instructions committed (thread level) (Count)
system.cpu.commitStats0.numOps                 537170                       # Number of ops (including micro ops) committed (thread level) (Count)
system.cpu.commitStats0.numInstsNotNOP              0                       # Number of instructions committed excluding NOPs or prefetches (Count)
system.cpu.commitStats0.numOpsNotNOP                0                       # Number of Ops (including micro ops) Simulated (Count)
system.cpu.commitStats0.cpi                156.828096                       # CPI: cycles per instruction (thread level) ((Cycle/Count))
system.cpu.commitStats0.ipc                  0.006376                       # IPC: instructions per cycle (thread level) ((Count/Cycle))
system.cpu.commitStats0.numMemRefs                  0                       # Number of memory references committed (Count)
system.cpu.commitStats0.numFpInsts               1462                       # Number of float instructions (Count)
system.cpu.commitStats0.numIntInsts            535840                       # Number of integer instructions (Count)
system.cpu.commitStats0.numLoadInsts           141751                       # Number of load instructions (Count)
system.cpu.commitStats0.numStoreInsts           20109                       # Number of store instructions (Count)
system.cpu.commitStats0.numVecInsts                 0                       # Number of vector instructions (Count)
system.cpu.commitStats0.committedInstType::No_OpClass          227      0.04%      0.04% # Class of committed instruction. (Count)
system.cpu.commitStats0.committedInstType::IntAlu       366442     68.22%     68.26% # Class of committed instruction. (Count)
system.cpu.commitStats0.committedInstType::IntMult         8004      1.49%     69.75% # Class of committed instruction. (Count)
system.cpu.commitStats0.committedInstType::IntDiv           28      0.01%     69.75% # Class of committed instruction. (Count)
system.cpu.commitStats0.committedInstType::FloatAdd          182      0.03%     69.79% # Class of committed instruction. (Count)
system.cpu.commitStats0.committedInstType::FloatCmp            0      0.00%     69.79% # Class of committed instruction. (Count)
system.cpu.commitStats0.committedInstType::FloatCvt            0      0.00%     69.79% # Class of committed instruction. (Count)
system.cpu.commitStats0.committedInstType::FloatMult            0      0.00%     69.79% # Class of committed instruction. (Count)
system.cpu.commitStats0.committedInstType::FloatMultAcc            0      0.00%     69.79% # Class of committed instruction. (Count)
system.cpu.commitStats0.committedInstType::FloatDiv            0      0.00%     69.79% # Class of committed instruction. (Count)
system.cpu.commitStats0.committedInstType::FloatMisc            0      0.00%     69.79% # Class of committed instruction. (Count)
system.cpu.commitStats0.committedInstType::FloatSqrt            0      0.00%     69.79% # Class of committed instruction. (Count)
system.cpu.commitStats0.committedInstType::SimdAdd            8      0.00%     69.79% # Class of committed instruction. (Count)
system.cpu.commitStats0.committedInstType::SimdAddAcc            0      0.00%     69.79% # Class of committed instruction. (Count)
system.cpu.commitStats0.committedInstType::SimdAlu          106      0.02%     69.81% # Class of committed instruction. (Count)
system.cpu.commitStats0.committedInstType::SimdCmp            0      0.00%     69.81% # Class of committed instruction. (Count)
system.cpu.commitStats0.committedInstType::SimdCvt           62      0.01%     69.82% # Class of committed instruction. (Count)
system.cpu.commitStats0.committedInstType::SimdMisc          251      0.05%     69.87% # Class of committed instruction. (Count)
system.cpu.commitStats0.committedInstType::SimdMult            0      0.00%     69.87% # Class of committed instruction. (Count)
system.cpu.commitStats0.committedInstType::SimdMultAcc            0      0.00%     69.87% # Class of committed instruction. (Count)
system.cpu.commitStats0.committedInstType::SimdMatMultAcc            0      0.00%     69.87% # Class of committed instruction. (Count)
system.cpu.commitStats0.committedInstType::SimdShift            0      0.00%     69.87% # Class of committed instruction. (Count)
system.cpu.commitStats0.committedInstType::SimdShiftAcc            0      0.00%     69.87% # Class of committed instruction. (Count)
system.cpu.commitStats0.committedInstType::SimdDiv            0      0.00%     69.87% # Class of committed instruction. (Count)
system.cpu.commitStats0.committedInstType::SimdSqrt            0      0.00%     69.87% # Class of committed instruction. (Count)
system.cpu.commitStats0.committedInstType::SimdFloatAdd            0      0.00%     69.87% # Class of committed instruction. (Count)
system.cpu.commitStats0.committedInstType::SimdFloatAlu            0      0.00%     69.87% # Class of committed instruction. (Count)
system.cpu.commitStats0.committedInstType::SimdFloatCmp            0      0.00%     69.87% # Class of committed instruction. (Count)
system.cpu.commitStats0.committedInstType::SimdFloatCvt            0      0.00%     69.87% # Class of committed instruction. (Count)
system.cpu.commitStats0.committedInstType::SimdFloatDiv            0      0.00%     69.87% # Class of committed instruction. (Count)
system.cpu.commitStats0.committedInstType::SimdFloatMisc            0      0.00%     69.87% # Class of committed instruction. (Count)
system.cpu.commitStats0.committedInstType::SimdFloatMult            0      0.00%     69.87% # Class of committed instruction. (Count)
system.cpu.commitStats0.committedInstType::SimdFloatMultAcc            0      0.00%     69.87% # Class of committed instruction. (Count)
system.cpu.commitStats0.committedInstType::SimdFloatMatMultAcc            0      0.00%     69.87% # Class of committed instruction. (Count)
system.cpu.commitStats0.committedInstType::SimdFloatSqrt            0      0.00%     69.87% # Class of committed instruction. (Count)
system.cpu.commitStats0.committedInstType::SimdReduceAdd            0      0.00%     69.87% # Class of committed instruction. (Count)
system.cpu.commitStats0.committedInstType::SimdReduceAlu            0      0.00%     69.87% # Class of committed instruction. (Count)
system.cpu.commitStats0.committedInstType::SimdReduceCmp            0      0.00%     69.87% # Class of committed instruction. (Count)
system.cpu.commitStats0.committedInstType::SimdFloatReduceAdd            0      0.00%     69.87% # Class of committed instruction. (Count)
system.cpu.commitStats0.committedInstType::SimdFloatReduceCmp            0      0.00%     69.87% # Class of committed instruction. (Count)
system.cpu.commitStats0.committedInstType::SimdAes            0      0.00%     69.87% # Class of committed instruction. (Count)
system.cpu.commitStats0.committedInstType::SimdAesMix            0      0.00%     69.87% # Class of committed instruction. (Count)
system.cpu.commitStats0.committedInstType::SimdSha1Hash            0      0.00%     69.87% # Class of committed instruction. (Count)
system.cpu.commitStats0.committedInstType::SimdSha1Hash2            0      0.00%     69.87% # Class of committed instruction. (Count)
system.cpu.commitStats0.committedInstType::SimdSha256Hash            0      0.00%     69.87% # Class of committed instruction. (Count)
system.cpu.commitStats0.committedInstType::SimdSha256Hash2            0      0.00%     69.87% # Class of committed instruction. (Count)
system.cpu.commitStats0.committedInstType::SimdShaSigma2            0      0.00%     69.87% # Class of committed instruction. (Count)
system.cpu.commitStats0.committedInstType::SimdShaSigma3            0      0.00%     69.87% # Class of committed instruction. (Count)
system.cpu.commitStats0.committedInstType::SimdPredAlu            0      0.00%     69.87% # Class of committed instruction. (Count)
system.cpu.commitStats0.committedInstType::Matrix            0      0.00%     69.87% # Class of committed instruction. (Count)
system.cpu.commitStats0.committedInstType::MatrixMov            0      0.00%     69.87% # Class of committed instruction. (Count)
system.cpu.commitStats0.committedInstType::MatrixOP            0      0.00%     69.87% # Class of committed instruction. (Count)
system.cpu.commitStats0.committedInstType::MemRead       141611     26.36%     96.23% # Class of committed instruction. (Count)
system.cpu.commitStats0.committedInstType::MemWrite        19560      3.64%     99.87% # Class of committed instruction. (Count)
system.cpu.commitStats0.committedInstType::FloatMemRead          140      0.03%     99.90% # Class of committed instruction. (Count)
system.cpu.commitStats0.committedInstType::FloatMemWrite          549      0.10%    100.00% # Class of committed instruction. (Count)
system.cpu.commitStats0.committedInstType::IprAccess            0      0.00%    100.00% # Class of committed instruction. (Count)
system.cpu.commitStats0.committedInstType::InstPrefetch            0      0.00%    100.00% # Class of committed instruction. (Count)
system.cpu.commitStats0.committedInstType::SimdUnitStrideLoad            0      0.00%    100.00% # Class of committed instruction. (Count)
system.cpu.commitStats0.committedInstType::SimdUnitStrideStore            0      0.00%    100.00% # Class of committed instruction. (Count)
system.cpu.commitStats0.committedInstType::SimdUnitStrideMaskLoad            0      0.00%    100.00% # Class of committed instruction. (Count)
system.cpu.commitStats0.committedInstType::SimdUnitStrideMaskStore            0      0.00%    100.00% # Class of committed instruction. (Count)
system.cpu.commitStats0.committedInstType::SimdStridedLoad            0      0.00%    100.00% # Class of committed instruction. (Count)
system.cpu.commitStats0.committedInstType::SimdStridedStore            0      0.00%    100.00% # Class of committed instruction. (Count)
system.cpu.commitStats0.committedInstType::SimdIndexedLoad            0      0.00%    100.00% # Class of committed instruction. (Count)
system.cpu.commitStats0.committedInstType::SimdIndexedStore            0      0.00%    100.00% # Class of committed instruction. (Count)
system.cpu.commitStats0.committedInstType::SimdWholeRegisterLoad            0      0.00%    100.00% # Class of committed instruction. (Count)
system.cpu.commitStats0.committedInstType::SimdWholeRegisterStore            0      0.00%    100.00% # Class of committed instruction. (Count)
system.cpu.commitStats0.committedInstType::SimdUnitStrideFaultOnlyFirstLoad            0      0.00%    100.00% # Class of committed instruction. (Count)
system.cpu.commitStats0.committedInstType::SimdUnitStrideSegmentedLoad            0      0.00%    100.00% # Class of committed instruction. (Count)
system.cpu.commitStats0.committedInstType::SimdUnitStrideSegmentedStore            0      0.00%    100.00% # Class of committed instruction. (Count)
system.cpu.commitStats0.committedInstType::SimdExt            0      0.00%    100.00% # Class of committed instruction. (Count)
system.cpu.commitStats0.committedInstType::SimdFloatExt            0      0.00%    100.00% # Class of committed instruction. (Count)
system.cpu.commitStats0.committedInstType::SimdConfig            0      0.00%    100.00% # Class of committed instruction. (Count)
system.cpu.commitStats0.committedInstType::total       537170                       # Class of committed instruction. (Count)
system.cpu.commitStats0.committedControl::IsControl        12274                       # Class of control type instructions committed (Count)
system.cpu.commitStats0.committedControl::IsDirectControl        12001                       # Class of control type instructions committed (Count)
system.cpu.commitStats0.committedControl::IsIndirectControl          273                       # Class of control type instructions committed (Count)
system.cpu.commitStats0.committedControl::IsCondControl        11262                       # Class of control type instructions committed (Count)
system.cpu.commitStats0.committedControl::IsUncondControl         1012                       # Class of control type instructions committed (Count)
system.cpu.commitStats0.committedControl::IsCall          194                       # Class of control type instructions committed (Count)
system.cpu.commitStats0.committedControl::IsReturn          189                       # Class of control type instructions committed (Count)
system.cpu.exec_context.thread_0.numMatAluAccesses            0                       # Number of matrix alu accesses (Count)
system.cpu.exec_context.thread_0.numCallsReturns          383                       # Number of times a function call or return occured (Count)
system.cpu.exec_context.thread_0.numMatInsts            0                       # Number of matrix instructions (Count)
system.cpu.exec_context.thread_0.numIdleCycles     0.002198                       # Number of idle cycles (Cycle)
system.cpu.exec_context.thread_0.numBusyCycles 69583841.997802                       # Number of busy cycles (Cycle)
system.cpu.exec_context.thread_0.notIdleFraction     1.000000                       # Percentage of non-idle cycles (Ratio)
system.cpu.exec_context.thread_0.idleFraction     0.000000                       # Percentage of idle cycles (Ratio)
system.cpu.executeStats0.numInsts                   0                       # Number of executed instructions (Count)
system.cpu.executeStats0.numNop                     0                       # Number of nop insts executed (Count)
system.cpu.executeStats0.numBranches                0                       # Number of branches executed (Count)
system.cpu.executeStats0.numLoadInsts               0                       # Number of load instructions executed (Count)
system.cpu.executeStats0.numStoreInsts         161860                       # Number of stores executed (Count)
system.cpu.executeStats0.instRate                   0                       # Inst execution rate ((Count/Cycle))
system.cpu.executeStats0.numFpAluAccesses         1462                       # Number of float alu accesses (Count)
system.cpu.executeStats0.numFpRegReads           1586                       # Number of times the floating registers were read (Count)
system.cpu.executeStats0.numFpRegWrites           853                       # Number of times the floating registers were written (Count)
system.cpu.executeStats0.numIntAluAccesses       535840                       # Number of integer alu accesses (Count)
system.cpu.executeStats0.numIntRegReads        805781                       # Number of times the integer registers were read (Count)
system.cpu.executeStats0.numIntRegWrites       493005                       # Number of times the integer registers were written (Count)
system.cpu.executeStats0.numMemRefs            161860                       # Number of memory refs (Count)
system.cpu.executeStats0.numMiscRegReads       185813                       # Number of times the Misc registers were read (Count)
system.cpu.executeStats0.numVecAluAccesses            0                       # Number of vector alu accesses (Count)
system.cpu.executeStats0.numDiscardedOps            0                       # Number of ops (including micro ops) which were discarded before commit (Count)
system.cpu.fetchStats0.numInsts                443695                       # Number of instructions fetched (thread level) (Count)
system.cpu.fetchStats0.numOps                  537170                       # Number of ops (including micro ops) fetched (thread level) (Count)
system.cpu.fetchStats0.fetchRate             0.006376                       # Number of inst fetches per cycle ((Count/Cycle))
system.cpu.fetchStats0.numBranches              12274                       # Number of branches fetched (Count)
system.cpu.fetchStats0.branchRate            0.000176                       # Number of branch fetches per cycle (Ratio)
system.cpu.fetchStats0.numFetchSuspends             0                       # Number of times Execute suspended instruction fetching (Count)
system.cpu.interrupts.clk_domain.clock           7280                       # Clock period in ticks (Tick)
system.cpu.mmu.dtb.rdAccesses                  141754                       # TLB accesses on read requests (Count)
system.cpu.mmu.dtb.wrAccesses                   20109                       # TLB accesses on write requests (Count)
system.cpu.mmu.dtb.rdMisses                        14                       # TLB misses on read requests (Count)
system.cpu.mmu.dtb.wrMisses                        11                       # TLB misses on write requests (Count)
system.cpu.mmu.dtb.walker.power_state.pwrStateResidencyTicks::UNDEFINED  31660648110                       # Cumulative time (in ticks) in various power states (Tick)
system.cpu.mmu.itb.rdAccesses                       0                       # TLB accesses on read requests (Count)
system.cpu.mmu.itb.wrAccesses                  561754                       # TLB accesses on write requests (Count)
system.cpu.mmu.itb.rdMisses                         0                       # TLB misses on read requests (Count)
system.cpu.mmu.itb.wrMisses                        54                       # TLB misses on write requests (Count)
system.cpu.mmu.itb.walker.power_state.pwrStateResidencyTicks::UNDEFINED  31660648110                       # Cumulative time (in ticks) in various power states (Tick)
system.cpu.power_state.pwrStateResidencyTicks::ON  31660648110                       # Cumulative time (in ticks) in various power states (Tick)
system.cpu.thread_0.numInsts                        0                       # Number of Instructions committed (Count)
system.cpu.thread_0.numOps                          0                       # Number of Ops committed (Count)
system.cpu.thread_0.numMemRefs                      0                       # Number of Memory References (Count)
system.cpu.workload.numSyscalls                    17                       # Number of system calls (Count)
system.mem_ctrl.avgPriority_cpu.inst::samples    561754.00                       # Average QoS priority value for accepted requests (Count)
system.mem_ctrl.avgPriority_cpu.data::samples    123889.00                       # Average QoS priority value for accepted requests (Count)
system.mem_ctrl.priorityMinLatency       0.000000017492                       # per QoS priority minimum request to response latency (Second)
system.mem_ctrl.priorityMaxLatency       0.061959707496                       # per QoS priority maximum request to response latency (Second)
system.mem_ctrl.numReadWriteTurnArounds            15                       # Number of turnarounds from READ to WRITE (Count)
system.mem_ctrl.numWriteReadTurnArounds            15                       # Number of turnarounds from WRITE to READ (Count)
system.mem_ctrl.numStayReadState              1398917                       # Number of times bus staying in READ state (Count)
system.mem_ctrl.numStayWriteState                 229                       # Number of times bus staying in WRITE state (Count)
system.mem_ctrl.readReqs                       703507                       # Number of read requests accepted (Count)
system.mem_ctrl.writeReqs                       20106                       # Number of write requests accepted (Count)
system.mem_ctrl.readBursts                     703507                       # Number of controller read bursts, including those serviced by the write queue (Count)
system.mem_ctrl.writeBursts                     20106                       # Number of controller write bursts, including those merged in the write queue (Count)
system.mem_ctrl.servicedByWrQ                   18158                       # Number of controller read bursts serviced by the write queue (Count)
system.mem_ctrl.mergedWrBursts                  19812                       # Number of controller write bursts merged with an existing one (Count)
system.mem_ctrl.neitherReadNorWriteReqs             0                       # Number of requests that are neither read nor write (Count)
system.mem_ctrl.avgRdQLen                        1.00                       # Average read queue length when enqueuing ((Count/Tick))
system.mem_ctrl.avgWrQLen                       52.06                       # Average write queue length when enqueuing ((Count/Tick))
system.mem_ctrl.numRdRetry                          0                       # Number of times read queue was full causing retry (Count)
system.mem_ctrl.numWrRetry                          0                       # Number of times write queue was full causing retry (Count)
system.mem_ctrl.readPktSize::0                    216                       # Read request sizes (log2) (Count)
system.mem_ctrl.readPktSize::1                     20                       # Read request sizes (log2) (Count)
system.mem_ctrl.readPktSize::2                 107342                       # Read request sizes (log2) (Count)
system.mem_ctrl.readPktSize::3                 595929                       # Read request sizes (log2) (Count)
system.mem_ctrl.readPktSize::4                      0                       # Read request sizes (log2) (Count)
system.mem_ctrl.readPktSize::5                      0                       # Read request sizes (log2) (Count)
system.mem_ctrl.readPktSize::6                      0                       # Read request sizes (log2) (Count)
system.mem_ctrl.writePktSize::0                    40                       # Write request sizes (log2) (Count)
system.mem_ctrl.writePktSize::1                     2                       # Write request sizes (log2) (Count)
system.mem_ctrl.writePktSize::2                 17914                       # Write request sizes (log2) (Count)
system.mem_ctrl.writePktSize::3                  2150                       # Write request sizes (log2) (Count)
system.mem_ctrl.writePktSize::4                     0                       # Write request sizes (log2) (Count)
system.mem_ctrl.writePktSize::5                     0                       # Write request sizes (log2) (Count)
system.mem_ctrl.writePktSize::6                     0                       # Write request sizes (log2) (Count)
system.mem_ctrl.rdQLenPdf::0                   685346                       # What read queue length does an incoming req see (Count)
system.mem_ctrl.rdQLenPdf::1                        3                       # What read queue length does an incoming req see (Count)
system.mem_ctrl.rdQLenPdf::2                        0                       # What read queue length does an incoming req see (Count)
system.mem_ctrl.rdQLenPdf::3                        0                       # What read queue length does an incoming req see (Count)
system.mem_ctrl.rdQLenPdf::4                        0                       # What read queue length does an incoming req see (Count)
system.mem_ctrl.rdQLenPdf::5                        0                       # What read queue length does an incoming req see (Count)
system.mem_ctrl.rdQLenPdf::6                        0                       # What read queue length does an incoming req see (Count)
system.mem_ctrl.rdQLenPdf::7                        0                       # What read queue length does an incoming req see (Count)
system.mem_ctrl.rdQLenPdf::8                        0                       # What read queue length does an incoming req see (Count)
system.mem_ctrl.rdQLenPdf::9                        0                       # What read queue length does an incoming req see (Count)
system.mem_ctrl.rdQLenPdf::10                       0                       # What read queue length does an incoming req see (Count)
system.mem_ctrl.rdQLenPdf::11                       0                       # What read queue length does an incoming req see (Count)
system.mem_ctrl.rdQLenPdf::12                       0                       # What read queue length does an incoming req see (Count)
system.mem_ctrl.rdQLenPdf::13                       0                       # What read queue length does an incoming req see (Count)
system.mem_ctrl.rdQLenPdf::14                       0                       # What read queue length does an incoming req see (Count)
system.mem_ctrl.rdQLenPdf::15                       0                       # What read queue length does an incoming req see (Count)
system.mem_ctrl.rdQLenPdf::16                       0                       # What read queue length does an incoming req see (Count)
system.mem_ctrl.rdQLenPdf::17                       0                       # What read queue length does an incoming req see (Count)
system.mem_ctrl.rdQLenPdf::18                       0                       # What read queue length does an incoming req see (Count)
system.mem_ctrl.rdQLenPdf::19                       0                       # What read queue length does an incoming req see (Count)
system.mem_ctrl.rdQLenPdf::20                       0                       # What read queue length does an incoming req see (Count)
system.mem_ctrl.rdQLenPdf::21                       0                       # What read queue length does an incoming req see (Count)
system.mem_ctrl.rdQLenPdf::22                       0                       # What read queue length does an incoming req see (Count)
system.mem_ctrl.rdQLenPdf::23                       0                       # What read queue length does an incoming req see (Count)
system.mem_ctrl.rdQLenPdf::24                       0                       # What read queue length does an incoming req see (Count)
system.mem_ctrl.rdQLenPdf::25                       0                       # What read queue length does an incoming req see (Count)
system.mem_ctrl.rdQLenPdf::26                       0                       # What read queue length does an incoming req see (Count)
system.mem_ctrl.rdQLenPdf::27                       0                       # What read queue length does an incoming req see (Count)
system.mem_ctrl.rdQLenPdf::28                       0                       # What read queue length does an incoming req see (Count)
system.mem_ctrl.rdQLenPdf::29                       0                       # What read queue length does an incoming req see (Count)
system.mem_ctrl.rdQLenPdf::30                       0                       # What read queue length does an incoming req see (Count)
system.mem_ctrl.rdQLenPdf::31                       0                       # What read queue length does an incoming req see (Count)
system.mem_ctrl.rdQLenPdf::32                       0                       # What read queue length does an incoming req see (Count)
system.mem_ctrl.rdQLenPdf::33                       0                       # What read queue length does an incoming req see (Count)
system.mem_ctrl.rdQLenPdf::34                       0                       # What read queue length does an incoming req see (Count)
system.mem_ctrl.rdQLenPdf::35                       0                       # What read queue length does an incoming req see (Count)
system.mem_ctrl.rdQLenPdf::36                       0                       # What read queue length does an incoming req see (Count)
system.mem_ctrl.rdQLenPdf::37                       0                       # What read queue length does an incoming req see (Count)
system.mem_ctrl.rdQLenPdf::38                       0                       # What read queue length does an incoming req see (Count)
system.mem_ctrl.rdQLenPdf::39                       0                       # What read queue length does an incoming req see (Count)
system.mem_ctrl.rdQLenPdf::40                       0                       # What read queue length does an incoming req see (Count)
system.mem_ctrl.rdQLenPdf::41                       0                       # What read queue length does an incoming req see (Count)
system.mem_ctrl.rdQLenPdf::42                       0                       # What read queue length does an incoming req see (Count)
system.mem_ctrl.rdQLenPdf::43                       0                       # What read queue length does an incoming req see (Count)
system.mem_ctrl.rdQLenPdf::44                       0                       # What read queue length does an incoming req see (Count)
system.mem_ctrl.rdQLenPdf::45                       0                       # What read queue length does an incoming req see (Count)
system.mem_ctrl.rdQLenPdf::46                       0                       # What read queue length does an incoming req see (Count)
system.mem_ctrl.rdQLenPdf::47                       0                       # What read queue length does an incoming req see (Count)
system.mem_ctrl.rdQLenPdf::48                       0                       # What read queue length does an incoming req see (Count)
system.mem_ctrl.rdQLenPdf::49                       0                       # What read queue length does an incoming req see (Count)
system.mem_ctrl.rdQLenPdf::50                       0                       # What read queue length does an incoming req see (Count)
system.mem_ctrl.rdQLenPdf::51                       0                       # What read queue length does an incoming req see (Count)
system.mem_ctrl.rdQLenPdf::52                       0                       # What read queue length does an incoming req see (Count)
system.mem_ctrl.rdQLenPdf::53                       0                       # What read queue length does an incoming req see (Count)
system.mem_ctrl.rdQLenPdf::54                       0                       # What read queue length does an incoming req see (Count)
system.mem_ctrl.rdQLenPdf::55                       0                       # What read queue length does an incoming req see (Count)
system.mem_ctrl.rdQLenPdf::56                       0                       # What read queue length does an incoming req see (Count)
system.mem_ctrl.rdQLenPdf::57                       0                       # What read queue length does an incoming req see (Count)
system.mem_ctrl.rdQLenPdf::58                       0                       # What read queue length does an incoming req see (Count)
system.mem_ctrl.rdQLenPdf::59                       0                       # What read queue length does an incoming req see (Count)
system.mem_ctrl.rdQLenPdf::60                       0                       # What read queue length does an incoming req see (Count)
system.mem_ctrl.rdQLenPdf::61                       0                       # What read queue length does an incoming req see (Count)
system.mem_ctrl.rdQLenPdf::62                       0                       # What read queue length does an incoming req see (Count)
system.mem_ctrl.rdQLenPdf::63                       0                       # What read queue length does an incoming req see (Count)
system.mem_ctrl.wrQLenPdf::0                        1                       # What write queue length does an incoming req see (Count)
system.mem_ctrl.wrQLenPdf::1                        1                       # What write queue length does an incoming req see (Count)
system.mem_ctrl.wrQLenPdf::2                        1                       # What write queue length does an incoming req see (Count)
system.mem_ctrl.wrQLenPdf::3                        1                       # What write queue length does an incoming req see (Count)
system.mem_ctrl.wrQLenPdf::4                        1                       # What write queue length does an incoming req see (Count)
system.mem_ctrl.wrQLenPdf::5                        1                       # What write queue length does an incoming req see (Count)
system.mem_ctrl.wrQLenPdf::6                        1                       # What write queue length does an incoming req see (Count)
system.mem_ctrl.wrQLenPdf::7                        1                       # What write queue length does an incoming req see (Count)
system.mem_ctrl.wrQLenPdf::8                        1                       # What write queue length does an incoming req see (Count)
system.mem_ctrl.wrQLenPdf::9                        1                       # What write queue length does an incoming req see (Count)
system.mem_ctrl.wrQLenPdf::10                       1                       # What write queue length does an incoming req see (Count)
system.mem_ctrl.wrQLenPdf::11                       1                       # What write queue length does an incoming req see (Count)
system.mem_ctrl.wrQLenPdf::12                       1                       # What write queue length does an incoming req see (Count)
system.mem_ctrl.wrQLenPdf::13                       1                       # What write queue length does an incoming req see (Count)
system.mem_ctrl.wrQLenPdf::14                       1                       # What write queue length does an incoming req see (Count)
system.mem_ctrl.wrQLenPdf::15                       1                       # What write queue length does an incoming req see (Count)
system.mem_ctrl.wrQLenPdf::16                       1                       # What write queue length does an incoming req see (Count)
system.mem_ctrl.wrQLenPdf::17                       1                       # What write queue length does an incoming req see (Count)
system.mem_ctrl.wrQLenPdf::18                       1                       # What write queue length does an incoming req see (Count)
system.mem_ctrl.wrQLenPdf::19                       1                       # What write queue length does an incoming req see (Count)
system.mem_ctrl.wrQLenPdf::20                       1                       # What write queue length does an incoming req see (Count)
system.mem_ctrl.wrQLenPdf::21                       1                       # What write queue length does an incoming req see (Count)
system.mem_ctrl.wrQLenPdf::22                       1                       # What write queue length does an incoming req see (Count)
system.mem_ctrl.wrQLenPdf::23                       1                       # What write queue length does an incoming req see (Count)
system.mem_ctrl.wrQLenPdf::24                       1                       # What write queue length does an incoming req see (Count)
system.mem_ctrl.wrQLenPdf::25                       1                       # What write queue length does an incoming req see (Count)
system.mem_ctrl.wrQLenPdf::26                       1                       # What write queue length does an incoming req see (Count)
system.mem_ctrl.wrQLenPdf::27                       1                       # What write queue length does an incoming req see (Count)
system.mem_ctrl.wrQLenPdf::28                       1                       # What write queue length does an incoming req see (Count)
system.mem_ctrl.wrQLenPdf::29                       1                       # What write queue length does an incoming req see (Count)
system.mem_ctrl.wrQLenPdf::30                       1                       # What write queue length does an incoming req see (Count)
system.mem_ctrl.wrQLenPdf::31                       1                       # What write queue length does an incoming req see (Count)
system.mem_ctrl.wrQLenPdf::32                       1                       # What write queue length does an incoming req see (Count)
system.mem_ctrl.wrQLenPdf::33                       1                       # What write queue length does an incoming req see (Count)
system.mem_ctrl.wrQLenPdf::34                       1                       # What write queue length does an incoming req see (Count)
system.mem_ctrl.wrQLenPdf::35                       1                       # What write queue length does an incoming req see (Count)
system.mem_ctrl.wrQLenPdf::36                       1                       # What write queue length does an incoming req see (Count)
system.mem_ctrl.wrQLenPdf::37                       1                       # What write queue length does an incoming req see (Count)
system.mem_ctrl.wrQLenPdf::38                       1                       # What write queue length does an incoming req see (Count)
system.mem_ctrl.wrQLenPdf::39                       1                       # What write queue length does an incoming req see (Count)
system.mem_ctrl.wrQLenPdf::40                       1                       # What write queue length does an incoming req see (Count)
system.mem_ctrl.wrQLenPdf::41                       1                       # What write queue length does an incoming req see (Count)
system.mem_ctrl.wrQLenPdf::42                       1                       # What write queue length does an incoming req see (Count)
system.mem_ctrl.wrQLenPdf::43                       1                       # What write queue length does an incoming req see (Count)
system.mem_ctrl.wrQLenPdf::44                       1                       # What write queue length does an incoming req see (Count)
system.mem_ctrl.wrQLenPdf::45                       1                       # What write queue length does an incoming req see (Count)
system.mem_ctrl.wrQLenPdf::46                       1                       # What write queue length does an incoming req see (Count)
system.mem_ctrl.wrQLenPdf::47                       3                       # What write queue length does an incoming req see (Count)
system.mem_ctrl.wrQLenPdf::48                       3                       # What write queue length does an incoming req see (Count)
system.mem_ctrl.wrQLenPdf::49                      16                       # What write queue length does an incoming req see (Count)
system.mem_ctrl.wrQLenPdf::50                      15                       # What write queue length does an incoming req see (Count)
system.mem_ctrl.wrQLenPdf::51                      15                       # What write queue length does an incoming req see (Count)
system.mem_ctrl.wrQLenPdf::52                      15                       # What write queue length does an incoming req see (Count)
system.mem_ctrl.wrQLenPdf::53                      15                       # What write queue length does an incoming req see (Count)
system.mem_ctrl.wrQLenPdf::54                      15                       # What write queue length does an incoming req see (Count)
system.mem_ctrl.wrQLenPdf::55                      15                       # What write queue length does an incoming req see (Count)
system.mem_ctrl.wrQLenPdf::56                      15                       # What write queue length does an incoming req see (Count)
system.mem_ctrl.wrQLenPdf::57                      15                       # What write queue length does an incoming req see (Count)
system.mem_ctrl.wrQLenPdf::58                      15                       # What write queue length does an incoming req see (Count)
system.mem_ctrl.wrQLenPdf::59                      15                       # What write queue length does an incoming req see (Count)
system.mem_ctrl.wrQLenPdf::60                      15                       # What write queue length does an incoming req see (Count)
system.mem_ctrl.wrQLenPdf::61                      15                       # What write queue length does an incoming req see (Count)
system.mem_ctrl.wrQLenPdf::62                      15                       # What write queue length does an incoming req see (Count)
system.mem_ctrl.wrQLenPdf::63                      15                       # What write queue length does an incoming req see (Count)
system.mem_ctrl.wrQLenPdf::64                      15                       # What write queue length does an incoming req see (Count)
system.mem_ctrl.wrQLenPdf::65                       0                       # What write queue length does an incoming req see (Count)
system.mem_ctrl.wrQLenPdf::66                       0                       # What write queue length does an incoming req see (Count)
system.mem_ctrl.wrQLenPdf::67                       0                       # What write queue length does an incoming req see (Count)
system.mem_ctrl.wrQLenPdf::68                       0                       # What write queue length does an incoming req see (Count)
system.mem_ctrl.wrQLenPdf::69                       0                       # What write queue length does an incoming req see (Count)
system.mem_ctrl.wrQLenPdf::70                       0                       # What write queue length does an incoming req see (Count)
system.mem_ctrl.wrQLenPdf::71                       0                       # What write queue length does an incoming req see (Count)
system.mem_ctrl.wrQLenPdf::72                       0                       # What write queue length does an incoming req see (Count)
system.mem_ctrl.wrQLenPdf::73                       0                       # What write queue length does an incoming req see (Count)
system.mem_ctrl.wrQLenPdf::74                       0                       # What write queue length does an incoming req see (Count)
system.mem_ctrl.wrQLenPdf::75                       0                       # What write queue length does an incoming req see (Count)
system.mem_ctrl.wrQLenPdf::76                       0                       # What write queue length does an incoming req see (Count)
system.mem_ctrl.wrQLenPdf::77                       0                       # What write queue length does an incoming req see (Count)
system.mem_ctrl.wrQLenPdf::78                       0                       # What write queue length does an incoming req see (Count)
system.mem_ctrl.wrQLenPdf::79                       0                       # What write queue length does an incoming req see (Count)
system.mem_ctrl.wrQLenPdf::80                       0                       # What write queue length does an incoming req see (Count)
system.mem_ctrl.wrQLenPdf::81                       0                       # What write queue length does an incoming req see (Count)
system.mem_ctrl.wrQLenPdf::82                       0                       # What write queue length does an incoming req see (Count)
system.mem_ctrl.wrQLenPdf::83                       0                       # What write queue length does an incoming req see (Count)
system.mem_ctrl.wrQLenPdf::84                       0                       # What write queue length does an incoming req see (Count)
system.mem_ctrl.wrQLenPdf::85                       0                       # What write queue length does an incoming req see (Count)
system.mem_ctrl.wrQLenPdf::86                       0                       # What write queue length does an incoming req see (Count)
system.mem_ctrl.wrQLenPdf::87                       0                       # What write queue length does an incoming req see (Count)
system.mem_ctrl.wrQLenPdf::88                       0                       # What write queue length does an incoming req see (Count)
system.mem_ctrl.wrQLenPdf::89                       0                       # What write queue length does an incoming req see (Count)
system.mem_ctrl.wrQLenPdf::90                       0                       # What write queue length does an incoming req see (Count)
system.mem_ctrl.wrQLenPdf::91                       0                       # What write queue length does an incoming req see (Count)
system.mem_ctrl.wrQLenPdf::92                       0                       # What write queue length does an incoming req see (Count)
system.mem_ctrl.wrQLenPdf::93                       0                       # What write queue length does an incoming req see (Count)
system.mem_ctrl.wrQLenPdf::94                       0                       # What write queue length does an incoming req see (Count)
system.mem_ctrl.wrQLenPdf::95                       0                       # What write queue length does an incoming req see (Count)
system.mem_ctrl.wrQLenPdf::96                       0                       # What write queue length does an incoming req see (Count)
system.mem_ctrl.wrQLenPdf::97                       0                       # What write queue length does an incoming req see (Count)
system.mem_ctrl.wrQLenPdf::98                       0                       # What write queue length does an incoming req see (Count)
system.mem_ctrl.wrQLenPdf::99                       0                       # What write queue length does an incoming req see (Count)
system.mem_ctrl.wrQLenPdf::100                      0                       # What write queue length does an incoming req see (Count)
system.mem_ctrl.wrQLenPdf::101                      0                       # What write queue length does an incoming req see (Count)
system.mem_ctrl.wrQLenPdf::102                      0                       # What write queue length does an incoming req see (Count)
system.mem_ctrl.wrQLenPdf::103                      0                       # What write queue length does an incoming req see (Count)
system.mem_ctrl.wrQLenPdf::104                      0                       # What write queue length does an incoming req see (Count)
system.mem_ctrl.wrQLenPdf::105                      0                       # What write queue length does an incoming req see (Count)
system.mem_ctrl.wrQLenPdf::106                      0                       # What write queue length does an incoming req see (Count)
system.mem_ctrl.wrQLenPdf::107                      0                       # What write queue length does an incoming req see (Count)
system.mem_ctrl.wrQLenPdf::108                      0                       # What write queue length does an incoming req see (Count)
system.mem_ctrl.wrQLenPdf::109                      0                       # What write queue length does an incoming req see (Count)
system.mem_ctrl.wrQLenPdf::110                      0                       # What write queue length does an incoming req see (Count)
system.mem_ctrl.wrQLenPdf::111                      0                       # What write queue length does an incoming req see (Count)
system.mem_ctrl.wrQLenPdf::112                      0                       # What write queue length does an incoming req see (Count)
system.mem_ctrl.wrQLenPdf::113                      0                       # What write queue length does an incoming req see (Count)
system.mem_ctrl.wrQLenPdf::114                      0                       # What write queue length does an incoming req see (Count)
system.mem_ctrl.wrQLenPdf::115                      0                       # What write queue length does an incoming req see (Count)
system.mem_ctrl.wrQLenPdf::116                      0                       # What write queue length does an incoming req see (Count)
system.mem_ctrl.wrQLenPdf::117                      0                       # What write queue length does an incoming req see (Count)
system.mem_ctrl.wrQLenPdf::118                      0                       # What write queue length does an incoming req see (Count)
system.mem_ctrl.wrQLenPdf::119                      0                       # What write queue length does an incoming req see (Count)
system.mem_ctrl.wrQLenPdf::120                      0                       # What write queue length does an incoming req see (Count)
system.mem_ctrl.wrQLenPdf::121                      0                       # What write queue length does an incoming req see (Count)
system.mem_ctrl.wrQLenPdf::122                      0                       # What write queue length does an incoming req see (Count)
system.mem_ctrl.wrQLenPdf::123                      0                       # What write queue length does an incoming req see (Count)
system.mem_ctrl.wrQLenPdf::124                      0                       # What write queue length does an incoming req see (Count)
system.mem_ctrl.wrQLenPdf::125                      0                       # What write queue length does an incoming req see (Count)
system.mem_ctrl.wrQLenPdf::126                      0                       # What write queue length does an incoming req see (Count)
system.mem_ctrl.wrQLenPdf::127                      0                       # What write queue length does an incoming req see (Count)
system.mem_ctrl.rdPerTurnAround::samples           15                       # Reads before turning the bus around for writes (Count)
system.mem_ctrl.rdPerTurnAround::mean    45684.733333                       # Reads before turning the bus around for writes (Count)
system.mem_ctrl.rdPerTurnAround::gmean    1488.220027                       # Reads before turning the bus around for writes (Count)
system.mem_ctrl.rdPerTurnAround::stdev   170302.563262                       # Reads before turning the bus around for writes (Count)
system.mem_ctrl.rdPerTurnAround::0-16383           14     93.33%     93.33% # Reads before turning the bus around for writes (Count)
system.mem_ctrl.rdPerTurnAround::655360-671743            1      6.67%    100.00% # Reads before turning the bus around for writes (Count)
system.mem_ctrl.rdPerTurnAround::total             15                       # Reads before turning the bus around for writes (Count)
system.mem_ctrl.wrPerTurnAround::samples           15                       # Writes before turning the bus around for reads (Count)
system.mem_ctrl.wrPerTurnAround::mean       16.266667                       # Writes before turning the bus around for reads (Count)
system.mem_ctrl.wrPerTurnAround::gmean      16.253254                       # Writes before turning the bus around for reads (Count)
system.mem_ctrl.wrPerTurnAround::stdev       0.703732                       # Writes before turning the bus around for reads (Count)
system.mem_ctrl.wrPerTurnAround::16                13     86.67%     86.67% # Writes before turning the bus around for reads (Count)
system.mem_ctrl.wrPerTurnAround::18                 2     13.33%    100.00% # Writes before turning the bus around for reads (Count)
system.mem_ctrl.wrPerTurnAround::total             15                       # Writes before turning the bus around for reads (Count)
system.mem_ctrl.bytesReadWrQ                  1162112                       # Total number of bytes read from write queue (Byte)
system.mem_ctrl.bytesReadSys                  5197051                       # Total read bytes from the system interface side (Byte)
system.mem_ctrl.bytesWrittenSys                 88900                       # Total written bytes from the system interface side (Byte)
system.mem_ctrl.avgRdBWSys               164148598.03070530                       # Average system read bandwidth in Byte/s ((Byte/Second))
system.mem_ctrl.avgWrBWSys               2807902.09003716                       # Average system write bandwidth in Byte/s ((Byte/Second))
system.mem_ctrl.totGap                    31660535270                       # Total gap between requests (Tick)
system.mem_ctrl.avgGap                       43753.41                       # Average gap between requests ((Tick/Count))
system.mem_ctrl.requestorReadBytes::cpu.inst      4494032                       # Per-requestor bytes read from memory (Byte)
system.mem_ctrl.requestorReadBytes::cpu.data       563892                       # Per-requestor bytes read from memory (Byte)
system.mem_ctrl.requestorWriteBytes::cpu.data         1806                       # Per-requestor bytes write to memory (Byte)
system.mem_ctrl.requestorReadRate::cpu.inst 141943777.789582341909                       # Per-requestor bytes read from memory rate ((Byte/Second))
system.mem_ctrl.requestorReadRate::cpu.data 17810500.847640417516                       # Per-requestor bytes read from memory rate ((Byte/Second))
system.mem_ctrl.requestorWriteRate::cpu.data 57042.420411778483                       # Per-requestor bytes write to memory rate ((Byte/Second))
system.mem_ctrl.requestorReadAccesses::cpu.inst       561754                       # Per-requestor read serviced memory accesses (Count)
system.mem_ctrl.requestorReadAccesses::cpu.data       141753                       # Per-requestor read serviced memory accesses (Count)
system.mem_ctrl.requestorWriteAccesses::cpu.data        20106                       # Per-requestor write serviced memory accesses (Count)
system.mem_ctrl.requestorReadTotalLat::cpu.inst  11514314426                       # Per-requestor read total memory access latency (Tick)
system.mem_ctrl.requestorReadTotalLat::cpu.data   2570426611                       # Per-requestor read total memory access latency (Tick)
system.mem_ctrl.requestorWriteTotalLat::cpu.data 753936541203                       # Per-requestor write total memory access latency (Tick)
system.mem_ctrl.requestorReadAvgLat::cpu.inst     20497.08                       # Per-requestor read average memory access latency ((Tick/Count))
system.mem_ctrl.requestorReadAvgLat::cpu.data     18133.14                       # Per-requestor read average memory access latency ((Tick/Count))
system.mem_ctrl.requestorWriteAvgLat::cpu.data  37498087.20                       # Per-requestor write average memory access latency ((Tick/Count))
system.mem_ctrl.dram.bytesRead::cpu.inst      4494032                       # Number of bytes read from this memory (Byte)
system.mem_ctrl.dram.bytesRead::cpu.data       703019                       # Number of bytes read from this memory (Byte)
system.mem_ctrl.dram.bytesRead::total         5197051                       # Number of bytes read from this memory (Byte)
system.mem_ctrl.dram.bytesInstRead::cpu.inst      4494032                       # Number of instructions bytes read from this memory (Byte)
system.mem_ctrl.dram.bytesInstRead::total      4494032                       # Number of instructions bytes read from this memory (Byte)
system.mem_ctrl.dram.bytesWritten::cpu.data        88900                       # Number of bytes written to this memory (Byte)
system.mem_ctrl.dram.bytesWritten::total        88900                       # Number of bytes written to this memory (Byte)
system.mem_ctrl.dram.numReads::cpu.inst        561754                       # Number of read requests responded to by this memory (Count)
system.mem_ctrl.dram.numReads::cpu.data        141753                       # Number of read requests responded to by this memory (Count)
system.mem_ctrl.dram.numReads::total           703507                       # Number of read requests responded to by this memory (Count)
system.mem_ctrl.dram.numWrites::cpu.data        20106                       # Number of write requests responded to by this memory (Count)
system.mem_ctrl.dram.numWrites::total           20106                       # Number of write requests responded to by this memory (Count)
system.mem_ctrl.dram.bwRead::cpu.inst       141943778                       # Total read bandwidth from this memory ((Byte/Second))
system.mem_ctrl.dram.bwRead::cpu.data        22204820                       # Total read bandwidth from this memory ((Byte/Second))
system.mem_ctrl.dram.bwRead::total          164148598                       # Total read bandwidth from this memory ((Byte/Second))
system.mem_ctrl.dram.bwInstRead::cpu.inst    141943778                       # Instruction read bandwidth from this memory ((Byte/Second))
system.mem_ctrl.dram.bwInstRead::total      141943778                       # Instruction read bandwidth from this memory ((Byte/Second))
system.mem_ctrl.dram.bwWrite::cpu.data        2807902                       # Write bandwidth from this memory ((Byte/Second))
system.mem_ctrl.dram.bwWrite::total           2807902                       # Write bandwidth from this memory ((Byte/Second))
system.mem_ctrl.dram.bwTotal::cpu.inst      141943778                       # Total bandwidth to/from this memory ((Byte/Second))
system.mem_ctrl.dram.bwTotal::cpu.data       25012722                       # Total bandwidth to/from this memory ((Byte/Second))
system.mem_ctrl.dram.bwTotal::total         166956500                       # Total bandwidth to/from this memory ((Byte/Second))
system.mem_ctrl.dram.readBursts                685349                       # Number of DRAM read bursts (Count)
system.mem_ctrl.dram.writeBursts                  244                       # Number of DRAM write bursts (Count)
system.mem_ctrl.dram.perBankRdBursts::0        548721                       # Per bank write bursts (Count)
system.mem_ctrl.dram.perBankRdBursts::1          1109                       # Per bank write bursts (Count)
system.mem_ctrl.dram.perBankRdBursts::2           369                       # Per bank write bursts (Count)
system.mem_ctrl.dram.perBankRdBursts::3           941                       # Per bank write bursts (Count)
system.mem_ctrl.dram.perBankRdBursts::4           464                       # Per bank write bursts (Count)
system.mem_ctrl.dram.perBankRdBursts::5          2233                       # Per bank write bursts (Count)
system.mem_ctrl.dram.perBankRdBursts::6          1102                       # Per bank write bursts (Count)
system.mem_ctrl.dram.perBankRdBursts::7         15715                       # Per bank write bursts (Count)
system.mem_ctrl.dram.perBankRdBursts::8        106824                       # Per bank write bursts (Count)
system.mem_ctrl.dram.perBankRdBursts::9           696                       # Per bank write bursts (Count)
system.mem_ctrl.dram.perBankRdBursts::10          138                       # Per bank write bursts (Count)
system.mem_ctrl.dram.perBankRdBursts::11         1219                       # Per bank write bursts (Count)
system.mem_ctrl.dram.perBankRdBursts::12         2137                       # Per bank write bursts (Count)
system.mem_ctrl.dram.perBankRdBursts::13          260                       # Per bank write bursts (Count)
system.mem_ctrl.dram.perBankRdBursts::14          357                       # Per bank write bursts (Count)
system.mem_ctrl.dram.perBankRdBursts::15            0                       # Per bank write bursts (Count)
system.mem_ctrl.dram.perBankRdBursts::16            0                       # Per bank write bursts (Count)
system.mem_ctrl.dram.perBankRdBursts::17            0                       # Per bank write bursts (Count)
system.mem_ctrl.dram.perBankRdBursts::18           42                       # Per bank write bursts (Count)
system.mem_ctrl.dram.perBankRdBursts::19           30                       # Per bank write bursts (Count)
system.mem_ctrl.dram.perBankRdBursts::20           58                       # Per bank write bursts (Count)
system.mem_ctrl.dram.perBankRdBursts::21           84                       # Per bank write bursts (Count)
system.mem_ctrl.dram.perBankRdBursts::22          134                       # Per bank write bursts (Count)
system.mem_ctrl.dram.perBankRdBursts::23           90                       # Per bank write bursts (Count)
system.mem_ctrl.dram.perBankRdBursts::24           32                       # Per bank write bursts (Count)
system.mem_ctrl.dram.perBankRdBursts::25            8                       # Per bank write bursts (Count)
system.mem_ctrl.dram.perBankRdBursts::26            2                       # Per bank write bursts (Count)
system.mem_ctrl.dram.perBankRdBursts::27          125                       # Per bank write bursts (Count)
system.mem_ctrl.dram.perBankRdBursts::28         2271                       # Per bank write bursts (Count)
system.mem_ctrl.dram.perBankRdBursts::29          176                       # Per bank write bursts (Count)
system.mem_ctrl.dram.perBankRdBursts::30           12                       # Per bank write bursts (Count)
system.mem_ctrl.dram.perBankRdBursts::31            0                       # Per bank write bursts (Count)
system.mem_ctrl.dram.perBankWrBursts::0             0                       # Per bank write bursts (Count)
system.mem_ctrl.dram.perBankWrBursts::1             0                       # Per bank write bursts (Count)
system.mem_ctrl.dram.perBankWrBursts::2            15                       # Per bank write bursts (Count)
system.mem_ctrl.dram.perBankWrBursts::3            57                       # Per bank write bursts (Count)
system.mem_ctrl.dram.perBankWrBursts::4            14                       # Per bank write bursts (Count)
system.mem_ctrl.dram.perBankWrBursts::5             0                       # Per bank write bursts (Count)
system.mem_ctrl.dram.perBankWrBursts::6            25                       # Per bank write bursts (Count)
system.mem_ctrl.dram.perBankWrBursts::7            49                       # Per bank write bursts (Count)
system.mem_ctrl.dram.perBankWrBursts::8            51                       # Per bank write bursts (Count)
system.mem_ctrl.dram.perBankWrBursts::9            33                       # Per bank write bursts (Count)
system.mem_ctrl.dram.perBankWrBursts::10            0                       # Per bank write bursts (Count)
system.mem_ctrl.dram.perBankWrBursts::11            0                       # Per bank write bursts (Count)
system.mem_ctrl.dram.perBankWrBursts::12            0                       # Per bank write bursts (Count)
system.mem_ctrl.dram.perBankWrBursts::13            0                       # Per bank write bursts (Count)
system.mem_ctrl.dram.perBankWrBursts::14            0                       # Per bank write bursts (Count)
system.mem_ctrl.dram.perBankWrBursts::15            0                       # Per bank write bursts (Count)
system.mem_ctrl.dram.perBankWrBursts::16            0                       # Per bank write bursts (Count)
system.mem_ctrl.dram.perBankWrBursts::17            0                       # Per bank write bursts (Count)
system.mem_ctrl.dram.perBankWrBursts::18            0                       # Per bank write bursts (Count)
system.mem_ctrl.dram.perBankWrBursts::19            0                       # Per bank write bursts (Count)
system.mem_ctrl.dram.perBankWrBursts::20            0                       # Per bank write bursts (Count)
system.mem_ctrl.dram.perBankWrBursts::21            0                       # Per bank write bursts (Count)
system.mem_ctrl.dram.perBankWrBursts::22            0                       # Per bank write bursts (Count)
system.mem_ctrl.dram.perBankWrBursts::23            0                       # Per bank write bursts (Count)
system.mem_ctrl.dram.perBankWrBursts::24            0                       # Per bank write bursts (Count)
system.mem_ctrl.dram.perBankWrBursts::25            0                       # Per bank write bursts (Count)
system.mem_ctrl.dram.perBankWrBursts::26            0                       # Per bank write bursts (Count)
system.mem_ctrl.dram.perBankWrBursts::27            0                       # Per bank write bursts (Count)
system.mem_ctrl.dram.perBankWrBursts::28            0                       # Per bank write bursts (Count)
system.mem_ctrl.dram.perBankWrBursts::29            0                       # Per bank write bursts (Count)
system.mem_ctrl.dram.perBankWrBursts::30            0                       # Per bank write bursts (Count)
system.mem_ctrl.dram.perBankWrBursts::31            0                       # Per bank write bursts (Count)
system.mem_ctrl.dram.totQLat               2096616329                       # Total ticks spent queuing (Tick)
system.mem_ctrl.dram.totBusLat             2283582868                       # Total ticks spent in databus transfers (Tick)
system.mem_ctrl.dram.totMemAccLat         14084741037                       # Total ticks spent from burst creation until serviced by the DRAM (Tick)
system.mem_ctrl.dram.avgQLat                  3059.20                       # Average queueing delay per DRAM burst ((Tick/Count))
system.mem_ctrl.dram.avgBusLat                3332.00                       # Average bus latency per DRAM burst ((Tick/Count))
system.mem_ctrl.dram.avgMemAccLat            20551.20                       # Average memory access latency per DRAM burst ((Tick/Count))
system.mem_ctrl.dram.readRowHits               636393                       # Number of row buffer hits during reads (Count)
system.mem_ctrl.dram.writeRowHits                 215                       # Number of row buffer hits during writes (Count)
system.mem_ctrl.dram.readRowHitRate             92.86                       # Row buffer hit rate for reads (Ratio)
system.mem_ctrl.dram.writeRowHitRate            88.11                       # Row buffer hit rate for writes (Ratio)
system.mem_ctrl.dram.bytesPerActivate::samples        48978                       # Bytes accessed per row activation (Byte)
system.mem_ctrl.dram.bytesPerActivate::mean   895.803994                       # Bytes accessed per row activation (Byte)
system.mem_ctrl.dram.bytesPerActivate::gmean   835.373710                       # Bytes accessed per row activation (Byte)
system.mem_ctrl.dram.bytesPerActivate::stdev   244.230766                       # Bytes accessed per row activation (Byte)
system.mem_ctrl.dram.bytesPerActivate::0-127          207      0.42%      0.42% # Bytes accessed per row activation (Byte)
system.mem_ctrl.dram.bytesPerActivate::128-255          746      1.52%      1.95% # Bytes accessed per row activation (Byte)
system.mem_ctrl.dram.bytesPerActivate::256-383         3297      6.73%      8.68% # Bytes accessed per row activation (Byte)
system.mem_ctrl.dram.bytesPerActivate::384-511          135      0.28%      8.95% # Bytes accessed per row activation (Byte)
system.mem_ctrl.dram.bytesPerActivate::512-639         1156      2.36%     11.31% # Bytes accessed per row activation (Byte)
system.mem_ctrl.dram.bytesPerActivate::640-767         5958     12.16%     23.48% # Bytes accessed per row activation (Byte)
system.mem_ctrl.dram.bytesPerActivate::768-895          963      1.97%     25.44% # Bytes accessed per row activation (Byte)
system.mem_ctrl.dram.bytesPerActivate::896-1023           58      0.12%     25.56% # Bytes accessed per row activation (Byte)
system.mem_ctrl.dram.bytesPerActivate::1024-1151        36458     74.44%    100.00% # Bytes accessed per row activation (Byte)
system.mem_ctrl.dram.bytesPerActivate::total        48978                       # Bytes accessed per row activation (Byte)
system.mem_ctrl.dram.dramBytesRead           43862336                       # Total bytes read (Byte)
system.mem_ctrl.dram.dramBytesWritten           15616                       # Total bytes written (Byte)
system.mem_ctrl.dram.avgRdBW              1385.389707                       # Average DRAM read bandwidth in MiBytes/s ((Byte/Second))
system.mem_ctrl.dram.avgWrBW                 0.493231                       # Average DRAM write bandwidth in MiBytes/s ((Byte/Second))
system.mem_ctrl.dram.peakBW                  19207.00                       # Theoretical peak bandwidth in MiByte/s ((Byte/Second))
system.mem_ctrl.dram.busUtil                     7.22                       # Data bus utilization in percentage (Ratio)
system.mem_ctrl.dram.busUtilRead                 7.21                       # Data bus utilization in percentage for reads (Ratio)
system.mem_ctrl.dram.busUtilWrite                0.00                       # Data bus utilization in percentage for writes (Ratio)
system.mem_ctrl.dram.pageHitRate                92.86                       # Row buffer hit rate, read and write combined (Ratio)
system.mem_ctrl.dram.power_state.pwrStateResidencyTicks::UNDEFINED  31660648110                       # Cumulative time (in ticks) in various power states (Tick)
system.mem_ctrl.dram.rank0.actEnergy     76039851.888000                       # Energy for activate commands per rank (pJ) (Joule)
system.mem_ctrl.dram.rank0.preEnergy     134220314.390399                       # Energy for precharge commands per rank (pJ) (Joule)
system.mem_ctrl.dram.rank0.readEnergy    1871441163.983912                       # Energy for read commands per rank (pJ) (Joule)
system.mem_ctrl.dram.rank0.writeEnergy   575609.664000                       # Energy for write commands per rank (pJ) (Joule)
system.mem_ctrl.dram.rank0.refreshEnergy 2748028664.673537                       # Energy for refresh commands per rank (pJ) (Joule)
system.mem_ctrl.dram.rank0.actBackEnergy 14911512470.215002                       # Energy for active background per rank (pJ) (Joule)
system.mem_ctrl.dram.rank0.preBackEnergy 39793452.249600                       # Energy for precharge background per rank (pJ) (Joule)
system.mem_ctrl.dram.rank0.actPowerDownEnergy            0                       # Energy for active power-down per rank (pJ) (Joule)
system.mem_ctrl.dram.rank0.prePowerDownEnergy            0                       # Energy for precharge power-down per rank (pJ) (Joule)
system.mem_ctrl.dram.rank0.selfRefreshEnergy            0                       # Energy for self refresh per rank (pJ) (Joule)
system.mem_ctrl.dram.rank0.totalEnergy   19781611527.064743                       # Total energy per rank (pJ) (Joule)
system.mem_ctrl.dram.rank0.averagePower    624.801219                       # Core power per rank (mW) (Watt)
system.mem_ctrl.dram.rank0.totalIdleTime            0                       # Total Idle time Per DRAM Rank (Tick)
system.mem_ctrl.dram.rank0.pwrStateTime::IDLE      7815790                       # Time in different power states (Tick)
system.mem_ctrl.dram.rank0.pwrStateTime::REF   1423100000                       # Time in different power states (Tick)
system.mem_ctrl.dram.rank0.pwrStateTime::SREF            0                       # Time in different power states (Tick)
system.mem_ctrl.dram.rank0.pwrStateTime::PRE_PDN            0                       # Time in different power states (Tick)
system.mem_ctrl.dram.rank0.pwrStateTime::ACT  30229732320                       # Time in different power states (Tick)
system.mem_ctrl.dram.rank0.pwrStateTime::ACT_PDN            0                       # Time in different power states (Tick)
system.mem_ctrl.dram.rank1.actEnergy     346181.472000                       # Energy for activate commands per rank (pJ) (Joule)
system.mem_ctrl.dram.rank1.preEnergy     611143.444800                       # Energy for precharge commands per rank (pJ) (Joule)
system.mem_ctrl.dram.rank1.readEnergy    8404252.953600                       # Energy for read commands per rank (pJ) (Joule)
system.mem_ctrl.dram.rank1.writeEnergy              0                       # Energy for write commands per rank (pJ) (Joule)
system.mem_ctrl.dram.rank1.refreshEnergy 2748028664.673537                       # Energy for refresh commands per rank (pJ) (Joule)
system.mem_ctrl.dram.rank1.actBackEnergy 765815913.055134                       # Energy for active background per rank (pJ) (Joule)
system.mem_ctrl.dram.rank1.preBackEnergy 9805350466.329958                       # Energy for precharge background per rank (pJ) (Joule)
system.mem_ctrl.dram.rank1.actPowerDownEnergy            0                       # Energy for active power-down per rank (pJ) (Joule)
system.mem_ctrl.dram.rank1.prePowerDownEnergy            0                       # Energy for precharge power-down per rank (pJ) (Joule)
system.mem_ctrl.dram.rank1.selfRefreshEnergy            0                       # Energy for self refresh per rank (pJ) (Joule)
system.mem_ctrl.dram.rank1.totalEnergy   13328556621.929003                       # Total energy per rank (pJ) (Joule)
system.mem_ctrl.dram.rank1.averagePower    420.981800                       # Core power per rank (mW) (Watt)
system.mem_ctrl.dram.rank1.totalIdleTime            0                       # Total Idle time Per DRAM Rank (Tick)
system.mem_ctrl.dram.rank1.pwrStateTime::IDLE  29983565740                       # Time in different power states (Tick)
system.mem_ctrl.dram.rank1.pwrStateTime::REF   1423100000                       # Time in different power states (Tick)
system.mem_ctrl.dram.rank1.pwrStateTime::SREF            0                       # Time in different power states (Tick)
system.mem_ctrl.dram.rank1.pwrStateTime::PRE_PDN            0                       # Time in different power states (Tick)
system.mem_ctrl.dram.rank1.pwrStateTime::ACT    253982370                       # Time in different power states (Tick)
system.mem_ctrl.dram.rank1.pwrStateTime::ACT_PDN            0                       # Time in different power states (Tick)
system.mem_ctrl.power_state.pwrStateResidencyTicks::UNDEFINED  31660648110                       # Cumulative time (in ticks) in various power states (Tick)
system.membus.transDist::ReadReq               703491                       # Transaction distribution (Count)
system.membus.transDist::ReadResp              703491                       # Transaction distribution (Count)
system.membus.transDist::WriteReq               20090                       # Transaction distribution (Count)
system.membus.transDist::WriteResp              20090                       # Transaction distribution (Count)
system.membus.transDist::LockedRMWReadReq           16                       # Transaction distribution (Count)
system.membus.transDist::LockedRMWReadResp           16                       # Transaction distribution (Count)
system.membus.transDist::LockedRMWWriteReq           16                       # Transaction distribution (Count)
system.membus.transDist::LockedRMWWriteResp           16                       # Transaction distribution (Count)
system.membus.pktCount_system.cpu.icache_port::system.mem_ctrl.port      1123508                       # Packet count per connected requestor and responder (Count)
system.membus.pktCount_system.cpu.icache_port::total      1123508                       # Packet count per connected requestor and responder (Count)
system.membus.pktCount_system.cpu.dcache_port::system.mem_ctrl.port       323718                       # Packet count per connected requestor and responder (Count)
system.membus.pktCount_system.cpu.dcache_port::total       323718                       # Packet count per connected requestor and responder (Count)
system.membus.pktCount::total                 1447226                       # Packet count per connected requestor and responder (Count)
system.membus.pktSize_system.cpu.icache_port::system.mem_ctrl.port      4494032                       # Cumulative packet size per connected requestor and responder (Byte)
system.membus.pktSize_system.cpu.icache_port::total      4494032                       # Cumulative packet size per connected requestor and responder (Byte)
system.membus.pktSize_system.cpu.dcache_port::system.mem_ctrl.port       791919                       # Cumulative packet size per connected requestor and responder (Byte)
system.membus.pktSize_system.cpu.dcache_port::total       791919                       # Cumulative packet size per connected requestor and responder (Byte)
system.membus.pktSize::total                  5285951                       # Cumulative packet size per connected requestor and responder (Byte)
system.membus.snoops                                0                       # Total snoops (Count)
system.membus.snoopTraffic                          0                       # Total snoop traffic (Byte)
system.membus.snoopFanout::samples             723613                       # Request fanout histogram (Count)
system.membus.snoopFanout::mean                     0                       # Request fanout histogram (Count)
system.membus.snoopFanout::stdev                    0                       # Request fanout histogram (Count)
system.membus.snoopFanout::underflows               0      0.00%      0.00% # Request fanout histogram (Count)
system.membus.snoopFanout::0                   723613    100.00%    100.00% # Request fanout histogram (Count)
system.membus.snoopFanout::1                        0      0.00%    100.00% # Request fanout histogram (Count)
system.membus.snoopFanout::overflows                0      0.00%    100.00% # Request fanout histogram (Count)
system.membus.snoopFanout::min_value                0                       # Request fanout histogram (Count)
system.membus.snoopFanout::max_value                0                       # Request fanout histogram (Count)
system.membus.snoopFanout::total               723613                       # Request fanout histogram (Count)
system.membus.power_state.pwrStateResidencyTicks::UNDEFINED  31660648110                       # Cumulative time (in ticks) in various power states (Tick)
system.membus.reqLayer2.occupancy           338392145                       # Layer occupancy (ticks) (Tick)
system.membus.reqLayer2.utilization               0.0                       # Layer utilization (Ratio)
system.membus.respLayer0.occupancy          662565509                       # Layer occupancy (ticks) (Tick)
system.membus.respLayer0.utilization              0.0                       # Layer utilization (Ratio)
system.membus.respLayer1.occupancy          171599364                       # Layer occupancy (ticks) (Tick)
system.membus.respLayer1.utilization              0.0                       # Layer utilization (Ratio)
system.membus.snoop_filter.totRequests              0                       # Total number of requests made to the snoop filter. (Count)
system.membus.snoop_filter.hitSingleRequests            0                       # Number of requests hitting in the snoop filter with a single holder of the requested data. (Count)
system.membus.snoop_filter.hitMultiRequests            0                       # Number of requests hitting in the snoop filter with multiple (>1) holders of the requested data. (Count)
system.membus.snoop_filter.totSnoops                0                       # Total number of snoops made to the snoop filter. (Count)
system.membus.snoop_filter.hitSingleSnoops            0                       # Number of snoops hitting in the snoop filter with a single holder of the requested data. (Count)
system.membus.snoop_filter.hitMultiSnoops            0                       # Number of snoops hitting in the snoop filter with multiple (>1) holders of the requested data. (Count)
system.workload.inst.arm                            0                       # number of arm instructions executed (Count)
system.workload.inst.quiesce                        0                       # number of quiesce instructions executed (Count)

---------- End Simulation Statistics   ----------
