
---------- Begin Simulation Statistics ----------
simSeconds                                   0.003832                       # Number of seconds simulated (Second)
simTicks                                   3832190000                       # Number of ticks simulated (Tick)
finalTick                                  3832190000                       # Number of ticks from beginning of simulation (restored from checkpoints and never reset) (Tick)
simFreq                                  1000000000000                       # The number of ticks per simulated second ((Tick/Second))
hostSeconds                                      1.74                       # Real time elapsed on the host (Second)
hostTickRate                               2198793936                       # The number of ticks simulated per host second (ticks/s) ((Tick/Second))
hostMemory                                     658796                       # Number of bytes of host memory used (Byte)
simInsts                                       443675                       # Number of instructions simulated (Count)
simOps                                         537149                       # Number of ops (including micro ops) simulated (Count)
hostInstRate                                   253089                       # Simulator instruction rate (inst/s) ((Count/Second))
hostOpRate                                     306336                       # Simulator op (including micro ops) rate (op/s) ((Count/Second))
system.clk_domain.clock                          1000                       # Clock period in ticks (Tick)
system.clk_domain.voltage_domain.voltage            1                       # Voltage in Volts (Volt)
system.cpu.numCycles                          3832191                       # Number of cpu cycles simulated (Cycle)
system.cpu.cpi                               8.637383                       # CPI: cycles per instruction (core level) ((Cycle/Count))
system.cpu.ipc                               0.115776                       # IPC: instructions per cycle (core level) ((Count/Cycle))
system.cpu.numWorkItemsStarted                      0                       # Number of work items this cpu started (Count)
system.cpu.numWorkItemsCompleted                    0                       # Number of work items this cpu completed (Count)
system.cpu.instsAdded                          550300                       # Number of instructions added to the IQ (excludes non-spec) (Count)
system.cpu.nonSpecInstsAdded                      103                       # Number of non-speculative instructions added to the IQ (Count)
system.cpu.instsIssued                         588567                       # Number of instructions issued (Count)
system.cpu.squashedInstsIssued                     41                       # Number of squashed instructions issued (Count)
system.cpu.squashedInstsExamined                13248                       # Number of squashed instructions iterated over during squash; mainly for profiling (Count)
system.cpu.squashedOperandsExamined             25456                       # Number of squashed operands that are examined and possibly removed from graph (Count)
system.cpu.squashedNonSpecRemoved                  55                       # Number of squashed non-spec instructions that were removed (Count)
system.cpu.numIssuedDist::samples             2086499                       # Number of insts issued each cycle (Count)
system.cpu.numIssuedDist::mean               0.282084                       # Number of insts issued each cycle (Count)
system.cpu.numIssuedDist::stdev              0.613283                       # Number of insts issued each cycle (Count)
system.cpu.numIssuedDist::underflows                0      0.00%      0.00% # Number of insts issued each cycle (Count)
system.cpu.numIssuedDist::0                   1625892     77.92%     77.92% # Number of insts issued each cycle (Count)
system.cpu.numIssuedDist::1                    367538     17.62%     95.54% # Number of insts issued each cycle (Count)
system.cpu.numIssuedDist::2                     68321      3.27%     98.81% # Number of insts issued each cycle (Count)
system.cpu.numIssuedDist::3                     19554      0.94%     99.75% # Number of insts issued each cycle (Count)
system.cpu.numIssuedDist::4                      2442      0.12%     99.87% # Number of insts issued each cycle (Count)
system.cpu.numIssuedDist::5                      1365      0.07%     99.93% # Number of insts issued each cycle (Count)
system.cpu.numIssuedDist::6                       739      0.04%     99.97% # Number of insts issued each cycle (Count)
system.cpu.numIssuedDist::7                       486      0.02%     99.99% # Number of insts issued each cycle (Count)
system.cpu.numIssuedDist::8                       162      0.01%    100.00% # Number of insts issued each cycle (Count)
system.cpu.numIssuedDist::overflows                 0      0.00%    100.00% # Number of insts issued each cycle (Count)
system.cpu.numIssuedDist::min_value                 0                       # Number of insts issued each cycle (Count)
system.cpu.numIssuedDist::max_value                 8                       # Number of insts issued each cycle (Count)
system.cpu.numIssuedDist::total               2086499                       # Number of insts issued each cycle (Count)
system.cpu.statFuBusy::No_OpClass                   0      0.00%      0.00% # attempts to use FU when none available (Count)
system.cpu.statFuBusy::IntAlu                     134     53.39%     53.39% # attempts to use FU when none available (Count)
system.cpu.statFuBusy::IntMult                      0      0.00%     53.39% # attempts to use FU when none available (Count)
system.cpu.statFuBusy::IntDiv                       0      0.00%     53.39% # attempts to use FU when none available (Count)
system.cpu.statFuBusy::FloatAdd                     0      0.00%     53.39% # attempts to use FU when none available (Count)
system.cpu.statFuBusy::FloatCmp                     0      0.00%     53.39% # attempts to use FU when none available (Count)
system.cpu.statFuBusy::FloatCvt                     0      0.00%     53.39% # attempts to use FU when none available (Count)
system.cpu.statFuBusy::FloatMult                    0      0.00%     53.39% # attempts to use FU when none available (Count)
system.cpu.statFuBusy::FloatMultAcc                 0      0.00%     53.39% # attempts to use FU when none available (Count)
system.cpu.statFuBusy::FloatDiv                     0      0.00%     53.39% # attempts to use FU when none available (Count)
system.cpu.statFuBusy::FloatMisc                    0      0.00%     53.39% # attempts to use FU when none available (Count)
system.cpu.statFuBusy::FloatSqrt                    0      0.00%     53.39% # attempts to use FU when none available (Count)
system.cpu.statFuBusy::SimdAdd                      0      0.00%     53.39% # attempts to use FU when none available (Count)
system.cpu.statFuBusy::SimdAddAcc                   0      0.00%     53.39% # attempts to use FU when none available (Count)
system.cpu.statFuBusy::SimdAlu                     10      3.98%     57.37% # attempts to use FU when none available (Count)
system.cpu.statFuBusy::SimdCmp                      0      0.00%     57.37% # attempts to use FU when none available (Count)
system.cpu.statFuBusy::SimdCvt                      0      0.00%     57.37% # attempts to use FU when none available (Count)
system.cpu.statFuBusy::SimdMisc                     0      0.00%     57.37% # attempts to use FU when none available (Count)
system.cpu.statFuBusy::SimdMult                     0      0.00%     57.37% # attempts to use FU when none available (Count)
system.cpu.statFuBusy::SimdMultAcc                  0      0.00%     57.37% # attempts to use FU when none available (Count)
system.cpu.statFuBusy::SimdMatMultAcc               0      0.00%     57.37% # attempts to use FU when none available (Count)
system.cpu.statFuBusy::SimdShift                    0      0.00%     57.37% # attempts to use FU when none available (Count)
system.cpu.statFuBusy::SimdShiftAcc                 0      0.00%     57.37% # attempts to use FU when none available (Count)
system.cpu.statFuBusy::SimdDiv                      0      0.00%     57.37% # attempts to use FU when none available (Count)
system.cpu.statFuBusy::SimdSqrt                     0      0.00%     57.37% # attempts to use FU when none available (Count)
system.cpu.statFuBusy::SimdFloatAdd                 0      0.00%     57.37% # attempts to use FU when none available (Count)
system.cpu.statFuBusy::SimdFloatAlu                 0      0.00%     57.37% # attempts to use FU when none available (Count)
system.cpu.statFuBusy::SimdFloatCmp                 0      0.00%     57.37% # attempts to use FU when none available (Count)
system.cpu.statFuBusy::SimdFloatCvt                 0      0.00%     57.37% # attempts to use FU when none available (Count)
system.cpu.statFuBusy::SimdFloatDiv                 0      0.00%     57.37% # attempts to use FU when none available (Count)
system.cpu.statFuBusy::SimdFloatMisc                0      0.00%     57.37% # attempts to use FU when none available (Count)
system.cpu.statFuBusy::SimdFloatMult                0      0.00%     57.37% # attempts to use FU when none available (Count)
system.cpu.statFuBusy::SimdFloatMultAcc             0      0.00%     57.37% # attempts to use FU when none available (Count)
system.cpu.statFuBusy::SimdFloatMatMultAcc            0      0.00%     57.37% # attempts to use FU when none available (Count)
system.cpu.statFuBusy::SimdFloatSqrt                0      0.00%     57.37% # attempts to use FU when none available (Count)
system.cpu.statFuBusy::SimdReduceAdd                0      0.00%     57.37% # attempts to use FU when none available (Count)
system.cpu.statFuBusy::SimdReduceAlu                0      0.00%     57.37% # attempts to use FU when none available (Count)
system.cpu.statFuBusy::SimdReduceCmp                0      0.00%     57.37% # attempts to use FU when none available (Count)
system.cpu.statFuBusy::SimdFloatReduceAdd            0      0.00%     57.37% # attempts to use FU when none available (Count)
system.cpu.statFuBusy::SimdFloatReduceCmp            0      0.00%     57.37% # attempts to use FU when none available (Count)
system.cpu.statFuBusy::SimdAes                      0      0.00%     57.37% # attempts to use FU when none available (Count)
system.cpu.statFuBusy::SimdAesMix                   0      0.00%     57.37% # attempts to use FU when none available (Count)
system.cpu.statFuBusy::SimdSha1Hash                 0      0.00%     57.37% # attempts to use FU when none available (Count)
system.cpu.statFuBusy::SimdSha1Hash2                0      0.00%     57.37% # attempts to use FU when none available (Count)
system.cpu.statFuBusy::SimdSha256Hash               0      0.00%     57.37% # attempts to use FU when none available (Count)
system.cpu.statFuBusy::SimdSha256Hash2              0      0.00%     57.37% # attempts to use FU when none available (Count)
system.cpu.statFuBusy::SimdShaSigma2                0      0.00%     57.37% # attempts to use FU when none available (Count)
system.cpu.statFuBusy::SimdShaSigma3                0      0.00%     57.37% # attempts to use FU when none available (Count)
system.cpu.statFuBusy::SimdPredAlu                  0      0.00%     57.37% # attempts to use FU when none available (Count)
system.cpu.statFuBusy::Matrix                       0      0.00%     57.37% # attempts to use FU when none available (Count)
system.cpu.statFuBusy::MatrixMov                    0      0.00%     57.37% # attempts to use FU when none available (Count)
system.cpu.statFuBusy::MatrixOP                     0      0.00%     57.37% # attempts to use FU when none available (Count)
system.cpu.statFuBusy::MemRead                     43     17.13%     74.50% # attempts to use FU when none available (Count)
system.cpu.statFuBusy::MemWrite                    27     10.76%     85.26% # attempts to use FU when none available (Count)
system.cpu.statFuBusy::FloatMemRead                29     11.55%     96.81% # attempts to use FU when none available (Count)
system.cpu.statFuBusy::FloatMemWrite                8      3.19%    100.00% # attempts to use FU when none available (Count)
system.cpu.statFuBusy::IprAccess                    0      0.00%    100.00% # attempts to use FU when none available (Count)
system.cpu.statFuBusy::InstPrefetch                 0      0.00%    100.00% # attempts to use FU when none available (Count)
system.cpu.statFuBusy::SimdUnitStrideLoad            0      0.00%    100.00% # attempts to use FU when none available (Count)
system.cpu.statFuBusy::SimdUnitStrideStore            0      0.00%    100.00% # attempts to use FU when none available (Count)
system.cpu.statFuBusy::SimdUnitStrideMaskLoad            0      0.00%    100.00% # attempts to use FU when none available (Count)
system.cpu.statFuBusy::SimdUnitStrideMaskStore            0      0.00%    100.00% # attempts to use FU when none available (Count)
system.cpu.statFuBusy::SimdStridedLoad              0      0.00%    100.00% # attempts to use FU when none available (Count)
system.cpu.statFuBusy::SimdStridedStore             0      0.00%    100.00% # attempts to use FU when none available (Count)
system.cpu.statFuBusy::SimdIndexedLoad              0      0.00%    100.00% # attempts to use FU when none available (Count)
system.cpu.statFuBusy::SimdIndexedStore             0      0.00%    100.00% # attempts to use FU when none available (Count)
system.cpu.statFuBusy::SimdWholeRegisterLoad            0      0.00%    100.00% # attempts to use FU when none available (Count)
system.cpu.statFuBusy::SimdWholeRegisterStore            0      0.00%    100.00% # attempts to use FU when none available (Count)
system.cpu.statFuBusy::SimdUnitStrideFaultOnlyFirstLoad            0      0.00%    100.00% # attempts to use FU when none available (Count)
system.cpu.statFuBusy::SimdUnitStrideSegmentedLoad            0      0.00%    100.00% # attempts to use FU when none available (Count)
system.cpu.statFuBusy::SimdUnitStrideSegmentedStore            0      0.00%    100.00% # attempts to use FU when none available (Count)
system.cpu.statFuBusy::SimdExt                      0      0.00%    100.00% # attempts to use FU when none available (Count)
system.cpu.statFuBusy::SimdFloatExt                 0      0.00%    100.00% # attempts to use FU when none available (Count)
system.cpu.statFuBusy::SimdConfig                   0      0.00%    100.00% # attempts to use FU when none available (Count)
system.cpu.statIssuedInstType_0::No_OpClass          452      0.08%      0.08% # Number of instructions issued per FU type, per thread (Count)
system.cpu.statIssuedInstType_0::IntAlu        373199     63.41%     63.48% # Number of instructions issued per FU type, per thread (Count)
system.cpu.statIssuedInstType_0::IntMult         8004      1.36%     64.84% # Number of instructions issued per FU type, per thread (Count)
system.cpu.statIssuedInstType_0::IntDiv            28      0.00%     64.85% # Number of instructions issued per FU type, per thread (Count)
system.cpu.statIssuedInstType_0::FloatAdd          223      0.04%     64.89% # Number of instructions issued per FU type, per thread (Count)
system.cpu.statIssuedInstType_0::FloatCmp            0      0.00%     64.89% # Number of instructions issued per FU type, per thread (Count)
system.cpu.statIssuedInstType_0::FloatCvt            0      0.00%     64.89% # Number of instructions issued per FU type, per thread (Count)
system.cpu.statIssuedInstType_0::FloatMult            0      0.00%     64.89% # Number of instructions issued per FU type, per thread (Count)
system.cpu.statIssuedInstType_0::FloatMultAcc            0      0.00%     64.89% # Number of instructions issued per FU type, per thread (Count)
system.cpu.statIssuedInstType_0::FloatDiv            0      0.00%     64.89% # Number of instructions issued per FU type, per thread (Count)
system.cpu.statIssuedInstType_0::FloatMisc            0      0.00%     64.89% # Number of instructions issued per FU type, per thread (Count)
system.cpu.statIssuedInstType_0::FloatSqrt            0      0.00%     64.89% # Number of instructions issued per FU type, per thread (Count)
system.cpu.statIssuedInstType_0::SimdAdd            8      0.00%     64.89% # Number of instructions issued per FU type, per thread (Count)
system.cpu.statIssuedInstType_0::SimdAddAcc            0      0.00%     64.89% # Number of instructions issued per FU type, per thread (Count)
system.cpu.statIssuedInstType_0::SimdAlu          152      0.03%     64.91% # Number of instructions issued per FU type, per thread (Count)
system.cpu.statIssuedInstType_0::SimdCmp            0      0.00%     64.91% # Number of instructions issued per FU type, per thread (Count)
system.cpu.statIssuedInstType_0::SimdCvt           62      0.01%     64.93% # Number of instructions issued per FU type, per thread (Count)
system.cpu.statIssuedInstType_0::SimdMisc          268      0.05%     64.97% # Number of instructions issued per FU type, per thread (Count)
system.cpu.statIssuedInstType_0::SimdMult            0      0.00%     64.97% # Number of instructions issued per FU type, per thread (Count)
system.cpu.statIssuedInstType_0::SimdMultAcc            0      0.00%     64.97% # Number of instructions issued per FU type, per thread (Count)
system.cpu.statIssuedInstType_0::SimdMatMultAcc            0      0.00%     64.97% # Number of instructions issued per FU type, per thread (Count)
system.cpu.statIssuedInstType_0::SimdShift            0      0.00%     64.97% # Number of instructions issued per FU type, per thread (Count)
system.cpu.statIssuedInstType_0::SimdShiftAcc            0      0.00%     64.97% # Number of instructions issued per FU type, per thread (Count)
system.cpu.statIssuedInstType_0::SimdDiv            0      0.00%     64.97% # Number of instructions issued per FU type, per thread (Count)
system.cpu.statIssuedInstType_0::SimdSqrt            0      0.00%     64.97% # Number of instructions issued per FU type, per thread (Count)
system.cpu.statIssuedInstType_0::SimdFloatAdd            0      0.00%     64.97% # Number of instructions issued per FU type, per thread (Count)
system.cpu.statIssuedInstType_0::SimdFloatAlu            0      0.00%     64.97% # Number of instructions issued per FU type, per thread (Count)
system.cpu.statIssuedInstType_0::SimdFloatCmp            0      0.00%     64.97% # Number of instructions issued per FU type, per thread (Count)
system.cpu.statIssuedInstType_0::SimdFloatCvt            0      0.00%     64.97% # Number of instructions issued per FU type, per thread (Count)
system.cpu.statIssuedInstType_0::SimdFloatDiv            0      0.00%     64.97% # Number of instructions issued per FU type, per thread (Count)
system.cpu.statIssuedInstType_0::SimdFloatMisc            0      0.00%     64.97% # Number of instructions issued per FU type, per thread (Count)
system.cpu.statIssuedInstType_0::SimdFloatMult            0      0.00%     64.97% # Number of instructions issued per FU type, per thread (Count)
system.cpu.statIssuedInstType_0::SimdFloatMultAcc            0      0.00%     64.97% # Number of instructions issued per FU type, per thread (Count)
system.cpu.statIssuedInstType_0::SimdFloatMatMultAcc            0      0.00%     64.97% # Number of instructions issued per FU type, per thread (Count)
system.cpu.statIssuedInstType_0::SimdFloatSqrt            0      0.00%     64.97% # Number of instructions issued per FU type, per thread (Count)
system.cpu.statIssuedInstType_0::SimdReduceAdd            0      0.00%     64.97% # Number of instructions issued per FU type, per thread (Count)
system.cpu.statIssuedInstType_0::SimdReduceAlu            0      0.00%     64.97% # Number of instructions issued per FU type, per thread (Count)
system.cpu.statIssuedInstType_0::SimdReduceCmp            0      0.00%     64.97% # Number of instructions issued per FU type, per thread (Count)
system.cpu.statIssuedInstType_0::SimdFloatReduceAdd            0      0.00%     64.97% # Number of instructions issued per FU type, per thread (Count)
system.cpu.statIssuedInstType_0::SimdFloatReduceCmp            0      0.00%     64.97% # Number of instructions issued per FU type, per thread (Count)
system.cpu.statIssuedInstType_0::SimdAes            0      0.00%     64.97% # Number of instructions issued per FU type, per thread (Count)
system.cpu.statIssuedInstType_0::SimdAesMix            0      0.00%     64.97% # Number of instructions issued per FU type, per thread (Count)
system.cpu.statIssuedInstType_0::SimdSha1Hash            0      0.00%     64.97% # Number of instructions issued per FU type, per thread (Count)
system.cpu.statIssuedInstType_0::SimdSha1Hash2            0      0.00%     64.97% # Number of instructions issued per FU type, per thread (Count)
system.cpu.statIssuedInstType_0::SimdSha256Hash            0      0.00%     64.97% # Number of instructions issued per FU type, per thread (Count)
system.cpu.statIssuedInstType_0::SimdSha256Hash2            0      0.00%     64.97% # Number of instructions issued per FU type, per thread (Count)
system.cpu.statIssuedInstType_0::SimdShaSigma2            0      0.00%     64.97% # Number of instructions issued per FU type, per thread (Count)
system.cpu.statIssuedInstType_0::SimdShaSigma3            0      0.00%     64.97% # Number of instructions issued per FU type, per thread (Count)
system.cpu.statIssuedInstType_0::SimdPredAlu            0      0.00%     64.97% # Number of instructions issued per FU type, per thread (Count)
system.cpu.statIssuedInstType_0::Matrix             0      0.00%     64.97% # Number of instructions issued per FU type, per thread (Count)
system.cpu.statIssuedInstType_0::MatrixMov            0      0.00%     64.97% # Number of instructions issued per FU type, per thread (Count)
system.cpu.statIssuedInstType_0::MatrixOP            0      0.00%     64.97% # Number of instructions issued per FU type, per thread (Count)
system.cpu.statIssuedInstType_0::MemRead       184914     31.42%     96.39% # Number of instructions issued per FU type, per thread (Count)
system.cpu.statIssuedInstType_0::MemWrite        20065      3.41%     99.80% # Number of instructions issued per FU type, per thread (Count)
system.cpu.statIssuedInstType_0::FloatMemRead          578      0.10%     99.90% # Number of instructions issued per FU type, per thread (Count)
system.cpu.statIssuedInstType_0::FloatMemWrite          614      0.10%    100.00% # Number of instructions issued per FU type, per thread (Count)
system.cpu.statIssuedInstType_0::IprAccess            0      0.00%    100.00% # Number of instructions issued per FU type, per thread (Count)
system.cpu.statIssuedInstType_0::InstPrefetch            0      0.00%    100.00% # Number of instructions issued per FU type, per thread (Count)
system.cpu.statIssuedInstType_0::SimdUnitStrideLoad            0      0.00%    100.00% # Number of instructions issued per FU type, per thread (Count)
system.cpu.statIssuedInstType_0::SimdUnitStrideStore            0      0.00%    100.00% # Number of instructions issued per FU type, per thread (Count)
system.cpu.statIssuedInstType_0::SimdUnitStrideMaskLoad            0      0.00%    100.00% # Number of instructions issued per FU type, per thread (Count)
system.cpu.statIssuedInstType_0::SimdUnitStrideMaskStore            0      0.00%    100.00% # Number of instructions issued per FU type, per thread (Count)
system.cpu.statIssuedInstType_0::SimdStridedLoad            0      0.00%    100.00% # Number of instructions issued per FU type, per thread (Count)
system.cpu.statIssuedInstType_0::SimdStridedStore            0      0.00%    100.00% # Number of instructions issued per FU type, per thread (Count)
system.cpu.statIssuedInstType_0::SimdIndexedLoad            0      0.00%    100.00% # Number of instructions issued per FU type, per thread (Count)
system.cpu.statIssuedInstType_0::SimdIndexedStore            0      0.00%    100.00% # Number of instructions issued per FU type, per thread (Count)
system.cpu.statIssuedInstType_0::SimdWholeRegisterLoad            0      0.00%    100.00% # Number of instructions issued per FU type, per thread (Count)
system.cpu.statIssuedInstType_0::SimdWholeRegisterStore            0      0.00%    100.00% # Number of instructions issued per FU type, per thread (Count)
system.cpu.statIssuedInstType_0::SimdUnitStrideFaultOnlyFirstLoad            0      0.00%    100.00% # Number of instructions issued per FU type, per thread (Count)
system.cpu.statIssuedInstType_0::SimdUnitStrideSegmentedLoad            0      0.00%    100.00% # Number of instructions issued per FU type, per thread (Count)
system.cpu.statIssuedInstType_0::SimdUnitStrideSegmentedStore            0      0.00%    100.00% # Number of instructions issued per FU type, per thread (Count)
system.cpu.statIssuedInstType_0::SimdExt            0      0.00%    100.00% # Number of instructions issued per FU type, per thread (Count)
system.cpu.statIssuedInstType_0::SimdFloatExt            0      0.00%    100.00% # Number of instructions issued per FU type, per thread (Count)
system.cpu.statIssuedInstType_0::SimdConfig            0      0.00%    100.00% # Number of instructions issued per FU type, per thread (Count)
system.cpu.statIssuedInstType_0::total         588567                       # Number of instructions issued per FU type, per thread (Count)
system.cpu.issueRate                         0.153585                       # Inst issue rate ((Count/Cycle))
system.cpu.fuBusy                                 251                       # FU busy when requested (Count)
system.cpu.fuBusyRate                        0.000426                       # FU busy rate (busy events/executed inst) ((Count/Count))
system.cpu.intInstQueueReads                  3259715                       # Number of integer instruction queue reads (Count)
system.cpu.intInstQueueWrites                  561412                       # Number of integer instruction queue writes (Count)
system.cpu.intInstQueueWakeupAccesses          543056                       # Number of integer instruction queue wakeup accesses (Count)
system.cpu.fpInstQueueReads                      4210                       # Number of floating instruction queue reads (Count)
system.cpu.fpInstQueueWrites                     2256                       # Number of floating instruction queue writes (Count)
system.cpu.fpInstQueueWakeupAccesses             1648                       # Number of floating instruction queue wakeup accesses (Count)
system.cpu.vecInstQueueReads                        0                       # Number of vector instruction queue reads (Count)
system.cpu.vecInstQueueWrites                       0                       # Number of vector instruction queue writes (Count)
system.cpu.vecInstQueueWakeupAccesses               0                       # Number of vector instruction queue wakeup accesses (Count)
system.cpu.intAluAccesses                      586240                       # Number of integer alu accesses (Count)
system.cpu.fpAluAccesses                         2126                       # Number of floating point alu accesses (Count)
system.cpu.vecAluAccesses                           0                       # Number of vector alu accesses (Count)
system.cpu.numSquashedInsts                       370                       # Number of squashed instructions skipped in execute (Count)
system.cpu.numSwp                                   0                       # Number of swp insts executed (Count)
system.cpu.timesIdled                           83537                       # Number of times that the entire CPU went into an idle state and unscheduled itself (Count)
system.cpu.idleCycles                         1745692                       # Total number of cycles that the CPU has spent unscheduled due to idling (Cycle)
system.cpu.MemDepUnit__0.insertedLoads         143932                       # Number of loads inserted to the mem dependence unit. (Count)
system.cpu.MemDepUnit__0.insertedStores         21287                       # Number of stores inserted to the mem dependence unit. (Count)
system.cpu.MemDepUnit__0.conflictingLoads        17325                       # Number of conflicting loads. (Count)
system.cpu.MemDepUnit__0.conflictingStores          141                       # Number of conflicting stores. (Count)
system.cpu.MemDepUnit__1.insertedLoads              0                       # Number of loads inserted to the mem dependence unit. (Count)
system.cpu.MemDepUnit__1.insertedStores             0                       # Number of stores inserted to the mem dependence unit. (Count)
system.cpu.MemDepUnit__1.conflictingLoads            0                       # Number of conflicting loads. (Count)
system.cpu.MemDepUnit__1.conflictingStores            0                       # Number of conflicting stores. (Count)
system.cpu.MemDepUnit__2.insertedLoads              0                       # Number of loads inserted to the mem dependence unit. (Count)
system.cpu.MemDepUnit__2.insertedStores             0                       # Number of stores inserted to the mem dependence unit. (Count)
system.cpu.MemDepUnit__2.conflictingLoads            0                       # Number of conflicting loads. (Count)
system.cpu.MemDepUnit__2.conflictingStores            0                       # Number of conflicting stores. (Count)
system.cpu.MemDepUnit__3.insertedLoads              0                       # Number of loads inserted to the mem dependence unit. (Count)
system.cpu.MemDepUnit__3.insertedStores             0                       # Number of stores inserted to the mem dependence unit. (Count)
system.cpu.MemDepUnit__3.conflictingLoads            0                       # Number of conflicting loads. (Count)
system.cpu.MemDepUnit__3.conflictingStores            0                       # Number of conflicting stores. (Count)
system.cpu.branchPred.lookups_0::NoBranch            0      0.00%      0.00% # Number of BP lookups (Count)
system.cpu.branchPred.lookups_0::Return           317      2.23%      2.23% # Number of BP lookups (Count)
system.cpu.branchPred.lookups_0::CallDirect          329      2.32%      4.55% # Number of BP lookups (Count)
system.cpu.branchPred.lookups_0::CallIndirect          128      0.90%      5.46% # Number of BP lookups (Count)
system.cpu.branchPred.lookups_0::DirectCond        12588     88.75%     94.20% # Number of BP lookups (Count)
system.cpu.branchPred.lookups_0::DirectUncond          725      5.11%     99.32% # Number of BP lookups (Count)
system.cpu.branchPred.lookups_0::IndirectCond            0      0.00%     99.32% # Number of BP lookups (Count)
system.cpu.branchPred.lookups_0::IndirectUncond           97      0.68%    100.00% # Number of BP lookups (Count)
system.cpu.branchPred.lookups_0::total          14184                       # Number of BP lookups (Count)
system.cpu.branchPred.squashes_0::NoBranch            0      0.00%      0.00% # Number of branches that got squashed (completely removed) as an earlier branch was mispredicted. (Count)
system.cpu.branchPred.squashes_0::Return          128      6.72%      6.72% # Number of branches that got squashed (completely removed) as an earlier branch was mispredicted. (Count)
system.cpu.branchPred.squashes_0::CallDirect          172      9.02%     15.74% # Number of branches that got squashed (completely removed) as an earlier branch was mispredicted. (Count)
system.cpu.branchPred.squashes_0::CallIndirect           91      4.77%     20.51% # Number of branches that got squashed (completely removed) as an earlier branch was mispredicted. (Count)
system.cpu.branchPred.squashes_0::DirectCond         1322     69.36%     89.87% # Number of branches that got squashed (completely removed) as an earlier branch was mispredicted. (Count)
system.cpu.branchPred.squashes_0::DirectUncond          143      7.50%     97.38% # Number of branches that got squashed (completely removed) as an earlier branch was mispredicted. (Count)
system.cpu.branchPred.squashes_0::IndirectCond            0      0.00%     97.38% # Number of branches that got squashed (completely removed) as an earlier branch was mispredicted. (Count)
system.cpu.branchPred.squashes_0::IndirectUncond           50      2.62%    100.00% # Number of branches that got squashed (completely removed) as an earlier branch was mispredicted. (Count)
system.cpu.branchPred.squashes_0::total          1906                       # Number of branches that got squashed (completely removed) as an earlier branch was mispredicted. (Count)
system.cpu.branchPred.corrected_0::NoBranch            0      0.00%      0.00% # Number of branches that got corrected but not yet commited. Branches get corrected by decode or after execute. Also a branch misprediction can be detected out-of-order. Therefore, a corrected branch might not end up beeing committed in case an even earlier branch was mispredicted (Count)
system.cpu.branchPred.corrected_0::Return            0      0.00%      0.00% # Number of branches that got corrected but not yet commited. Branches get corrected by decode or after execute. Also a branch misprediction can be detected out-of-order. Therefore, a corrected branch might not end up beeing committed in case an even earlier branch was mispredicted (Count)
system.cpu.branchPred.corrected_0::CallDirect          175     13.14%     13.14% # Number of branches that got corrected but not yet commited. Branches get corrected by decode or after execute. Also a branch misprediction can be detected out-of-order. Therefore, a corrected branch might not end up beeing committed in case an even earlier branch was mispredicted (Count)
system.cpu.branchPred.corrected_0::CallIndirect           48      3.60%     16.74% # Number of branches that got corrected but not yet commited. Branches get corrected by decode or after execute. Also a branch misprediction can be detected out-of-order. Therefore, a corrected branch might not end up beeing committed in case an even earlier branch was mispredicted (Count)
system.cpu.branchPred.corrected_0::DirectCond          931     69.89%     86.64% # Number of branches that got corrected but not yet commited. Branches get corrected by decode or after execute. Also a branch misprediction can be detected out-of-order. Therefore, a corrected branch might not end up beeing committed in case an even earlier branch was mispredicted (Count)
system.cpu.branchPred.corrected_0::DirectUncond          123      9.23%     95.87% # Number of branches that got corrected but not yet commited. Branches get corrected by decode or after execute. Also a branch misprediction can be detected out-of-order. Therefore, a corrected branch might not end up beeing committed in case an even earlier branch was mispredicted (Count)
system.cpu.branchPred.corrected_0::IndirectCond            0      0.00%     95.87% # Number of branches that got corrected but not yet commited. Branches get corrected by decode or after execute. Also a branch misprediction can be detected out-of-order. Therefore, a corrected branch might not end up beeing committed in case an even earlier branch was mispredicted (Count)
system.cpu.branchPred.corrected_0::IndirectUncond           55      4.13%    100.00% # Number of branches that got corrected but not yet commited. Branches get corrected by decode or after execute. Also a branch misprediction can be detected out-of-order. Therefore, a corrected branch might not end up beeing committed in case an even earlier branch was mispredicted (Count)
system.cpu.branchPred.corrected_0::total         1332                       # Number of branches that got corrected but not yet commited. Branches get corrected by decode or after execute. Also a branch misprediction can be detected out-of-order. Therefore, a corrected branch might not end up beeing committed in case an even earlier branch was mispredicted (Count)
system.cpu.branchPred.earlyResteers_0::NoBranch            0                       # Number of branches that got redirected after decode. (Count)
system.cpu.branchPred.earlyResteers_0::Return            0                       # Number of branches that got redirected after decode. (Count)
system.cpu.branchPred.earlyResteers_0::CallDirect            0                       # Number of branches that got redirected after decode. (Count)
system.cpu.branchPred.earlyResteers_0::CallIndirect            0                       # Number of branches that got redirected after decode. (Count)
system.cpu.branchPred.earlyResteers_0::DirectCond            0                       # Number of branches that got redirected after decode. (Count)
system.cpu.branchPred.earlyResteers_0::DirectUncond            0                       # Number of branches that got redirected after decode. (Count)
system.cpu.branchPred.earlyResteers_0::IndirectCond            0                       # Number of branches that got redirected after decode. (Count)
system.cpu.branchPred.earlyResteers_0::IndirectUncond            0                       # Number of branches that got redirected after decode. (Count)
system.cpu.branchPred.earlyResteers_0::total            0                       # Number of branches that got redirected after decode. (Count)
system.cpu.branchPred.committed_0::NoBranch            0      0.00%      0.00% # Number of branches finally committed  (Count)
system.cpu.branchPred.committed_0::Return          189      1.54%      1.54% # Number of branches finally committed  (Count)
system.cpu.branchPred.committed_0::CallDirect          157      1.28%      2.82% # Number of branches finally committed  (Count)
system.cpu.branchPred.committed_0::CallIndirect           37      0.30%      3.12% # Number of branches finally committed  (Count)
system.cpu.branchPred.committed_0::DirectCond        11262     91.75%     94.88% # Number of branches finally committed  (Count)
system.cpu.branchPred.committed_0::DirectUncond          582      4.74%     99.62% # Number of branches finally committed  (Count)
system.cpu.branchPred.committed_0::IndirectCond            0      0.00%     99.62% # Number of branches finally committed  (Count)
system.cpu.branchPred.committed_0::IndirectUncond           47      0.38%    100.00% # Number of branches finally committed  (Count)
system.cpu.branchPred.committed_0::total        12274                       # Number of branches finally committed  (Count)
system.cpu.branchPred.mispredicted_0::NoBranch            0      0.00%      0.00% # Number of committed branches that were mispredicted. (Count)
system.cpu.branchPred.mispredicted_0::Return            0      0.00%      0.00% # Number of committed branches that were mispredicted. (Count)
system.cpu.branchPred.mispredicted_0::CallDirect          117     10.44%     10.44% # Number of committed branches that were mispredicted. (Count)
system.cpu.branchPred.mispredicted_0::CallIndirect           36      3.21%     13.65% # Number of committed branches that were mispredicted. (Count)
system.cpu.branchPred.mispredicted_0::DirectCond          852     76.00%     89.65% # Number of committed branches that were mispredicted. (Count)
system.cpu.branchPred.mispredicted_0::DirectUncond           71      6.33%     95.99% # Number of committed branches that were mispredicted. (Count)
system.cpu.branchPred.mispredicted_0::IndirectCond            0      0.00%     95.99% # Number of committed branches that were mispredicted. (Count)
system.cpu.branchPred.mispredicted_0::IndirectUncond           45      4.01%    100.00% # Number of committed branches that were mispredicted. (Count)
system.cpu.branchPred.mispredicted_0::total         1121                       # Number of committed branches that were mispredicted. (Count)
system.cpu.branchPred.targetProvider_0::NoTarget         2686     18.94%     18.94% # The component providing the target for taken branches (Count)
system.cpu.branchPred.targetProvider_0::BTB        11174     78.78%     97.72% # The component providing the target for taken branches (Count)
system.cpu.branchPred.targetProvider_0::RAS          317      2.23%     99.95% # The component providing the target for taken branches (Count)
system.cpu.branchPred.targetProvider_0::Indirect            7      0.05%    100.00% # The component providing the target for taken branches (Count)
system.cpu.branchPred.targetProvider_0::total        14184                       # The component providing the target for taken branches (Count)
system.cpu.branchPred.targetWrong_0::NoBranch          842     63.55%     63.55% # Number of branches where the target was incorrect or not available at prediction time. (Count)
system.cpu.branchPred.targetWrong_0::Return          482     36.38%     99.92% # Number of branches where the target was incorrect or not available at prediction time. (Count)
system.cpu.branchPred.targetWrong_0::CallDirect            0      0.00%     99.92% # Number of branches where the target was incorrect or not available at prediction time. (Count)
system.cpu.branchPred.targetWrong_0::CallIndirect            1      0.08%    100.00% # Number of branches where the target was incorrect or not available at prediction time. (Count)
system.cpu.branchPred.targetWrong_0::DirectCond            0      0.00%    100.00% # Number of branches where the target was incorrect or not available at prediction time. (Count)
system.cpu.branchPred.targetWrong_0::DirectUncond            0      0.00%    100.00% # Number of branches where the target was incorrect or not available at prediction time. (Count)
system.cpu.branchPred.targetWrong_0::IndirectCond            0      0.00%    100.00% # Number of branches where the target was incorrect or not available at prediction time. (Count)
system.cpu.branchPred.targetWrong_0::IndirectUncond            0      0.00%    100.00% # Number of branches where the target was incorrect or not available at prediction time. (Count)
system.cpu.branchPred.targetWrong_0::total         1325                       # Number of branches where the target was incorrect or not available at prediction time. (Count)
system.cpu.branchPred.condPredicted             12588                       # Number of conditional branches predicted (Count)
system.cpu.branchPred.condPredictedTaken        10966                       # Number of conditional branches predicted as taken (Count)
system.cpu.branchPred.condIncorrect              1332                       # Number of conditional branches incorrect (Count)
system.cpu.branchPred.predTakenBTBMiss            395                       # Number of branches predicted taken but missed in BTB (Count)
system.cpu.branchPred.NotTakenMispredicted          848                       # Number branches predicted 'not taken' but turned out to be taken (Count)
system.cpu.branchPred.TakenMispredicted           484                       # Number branches predicted taken but are actually not taken (Count)
system.cpu.branchPred.BTBLookups                14184                       # Number of BTB lookups (Count)
system.cpu.branchPred.BTBUpdates                  745                       # Number of BTB updates (Count)
system.cpu.branchPred.BTBHits                   11591                       # Number of BTB hits (Count)
system.cpu.branchPred.BTBHitRatio            0.817188                       # BTB Hit Ratio (Ratio)
system.cpu.branchPred.BTBMispredicted             590                       # Number BTB mispredictions. No target found or target wrong (Count)
system.cpu.branchPred.indirectLookups             225                       # Number of indirect predictor lookups. (Count)
system.cpu.branchPred.indirectHits                  7                       # Number of indirect target hits. (Count)
system.cpu.branchPred.indirectMisses              218                       # Number of indirect misses. (Count)
system.cpu.branchPred.indirectMispredicted            0                       # Number of mispredicted indirect branches. (Count)
system.cpu.branchPred.btb.lookups::NoBranch            0      0.00%      0.00% # Number of BTB lookups (Count)
system.cpu.branchPred.btb.lookups::Return          317      2.23%      2.23% # Number of BTB lookups (Count)
system.cpu.branchPred.btb.lookups::CallDirect          329      2.32%      4.55% # Number of BTB lookups (Count)
system.cpu.branchPred.btb.lookups::CallIndirect          128      0.90%      5.46% # Number of BTB lookups (Count)
system.cpu.branchPred.btb.lookups::DirectCond        12588     88.75%     94.20% # Number of BTB lookups (Count)
system.cpu.branchPred.btb.lookups::DirectUncond          725      5.11%     99.32% # Number of BTB lookups (Count)
system.cpu.branchPred.btb.lookups::IndirectCond            0      0.00%     99.32% # Number of BTB lookups (Count)
system.cpu.branchPred.btb.lookups::IndirectUncond           97      0.68%    100.00% # Number of BTB lookups (Count)
system.cpu.branchPred.btb.lookups::total        14184                       # Number of BTB lookups (Count)
system.cpu.branchPred.btb.misses::NoBranch            0      0.00%      0.00% # Number of BTB misses (Count)
system.cpu.branchPred.btb.misses::Return          317     12.23%     12.23% # Number of BTB misses (Count)
system.cpu.branchPred.btb.misses::CallDirect          221      8.52%     20.75% # Number of BTB misses (Count)
system.cpu.branchPred.btb.misses::CallIndirect          128      4.94%     25.68% # Number of BTB misses (Count)
system.cpu.branchPred.btb.misses::DirectCond         1670     64.40%     90.09% # Number of BTB misses (Count)
system.cpu.branchPred.btb.misses::DirectUncond          160      6.17%     96.26% # Number of BTB misses (Count)
system.cpu.branchPred.btb.misses::IndirectCond            0      0.00%     96.26% # Number of BTB misses (Count)
system.cpu.branchPred.btb.misses::IndirectUncond           97      3.74%    100.00% # Number of BTB misses (Count)
system.cpu.branchPred.btb.misses::total          2593                       # Number of BTB misses (Count)
system.cpu.branchPred.btb.updates::NoBranch            0      0.00%      0.00% # Number of BTB updates (Count)
system.cpu.branchPred.btb.updates::Return            0      0.00%      0.00% # Number of BTB updates (Count)
system.cpu.branchPred.btb.updates::CallDirect          175     23.49%     23.49% # Number of BTB updates (Count)
system.cpu.branchPred.btb.updates::CallIndirect            0      0.00%     23.49% # Number of BTB updates (Count)
system.cpu.branchPred.btb.updates::DirectCond          447     60.00%     83.49% # Number of BTB updates (Count)
system.cpu.branchPred.btb.updates::DirectUncond          123     16.51%    100.00% # Number of BTB updates (Count)
system.cpu.branchPred.btb.updates::IndirectCond            0      0.00%    100.00% # Number of BTB updates (Count)
system.cpu.branchPred.btb.updates::IndirectUncond            0      0.00%    100.00% # Number of BTB updates (Count)
system.cpu.branchPred.btb.updates::total          745                       # Number of BTB updates (Count)
system.cpu.branchPred.btb.mispredict::NoBranch            0      0.00%      0.00% # Number of BTB mispredictions. No target found or target wrong. (Count)
system.cpu.branchPred.btb.mispredict::Return            0      0.00%      0.00% # Number of BTB mispredictions. No target found or target wrong. (Count)
system.cpu.branchPred.btb.mispredict::CallDirect          175     23.49%     23.49% # Number of BTB mispredictions. No target found or target wrong. (Count)
system.cpu.branchPred.btb.mispredict::CallIndirect            0      0.00%     23.49% # Number of BTB mispredictions. No target found or target wrong. (Count)
system.cpu.branchPred.btb.mispredict::DirectCond          447     60.00%     83.49% # Number of BTB mispredictions. No target found or target wrong. (Count)
system.cpu.branchPred.btb.mispredict::DirectUncond          123     16.51%    100.00% # Number of BTB mispredictions. No target found or target wrong. (Count)
system.cpu.branchPred.btb.mispredict::IndirectCond            0      0.00%    100.00% # Number of BTB mispredictions. No target found or target wrong. (Count)
system.cpu.branchPred.btb.mispredict::IndirectUncond            0      0.00%    100.00% # Number of BTB mispredictions. No target found or target wrong. (Count)
system.cpu.branchPred.btb.mispredict::total          745                       # Number of BTB mispredictions. No target found or target wrong. (Count)
system.cpu.branchPred.btb.power_state.pwrStateResidencyTicks::UNDEFINED   3832190000                       # Cumulative time (in ticks) in various power states (Tick)
system.cpu.branchPred.indirectBranchPred.lookups          225                       # Number of lookups (Count)
system.cpu.branchPred.indirectBranchPred.hits            7                       # Number of hits of a tag (Count)
system.cpu.branchPred.indirectBranchPred.misses          218                       # Number of misses (Count)
system.cpu.branchPred.indirectBranchPred.targetRecords          103                       # Number of targets that where recorded/installed in the cache (Count)
system.cpu.branchPred.indirectBranchPred.indirectRecords          328                       # Number of indirect branches/calls recorded in the indirect hist (Count)
system.cpu.branchPred.indirectBranchPred.speculativeOverflows            0                       # Number of times more than the allowed capacity for speculative branches/calls where in flight and destroy the path history (Count)
system.cpu.branchPred.ras.pushes                  585                       # Number of times a PC was pushed onto the RAS (Count)
system.cpu.branchPred.ras.pops                    580                       # Number of times a PC was poped from the RAS (Count)
system.cpu.branchPred.ras.squashes                391                       # Number of times the stack operation was squashed due to wrong speculation. (Count)
system.cpu.branchPred.ras.used                    189                       # Number of times the RAS is the provider (Count)
system.cpu.branchPred.ras.correct                 189                       # Number of times the RAS is the provider and the prediction is correct (Count)
system.cpu.branchPred.ras.incorrect                 0                       # Number of times the RAS is the provider and the prediction is wrong (Count)
system.cpu.commit.commitSquashedInsts           13229                       # The number of squashed insts skipped by commit (Count)
system.cpu.commit.commitNonSpecStalls              48                       # The number of times commit has been forced to stall to communicate backwards (Count)
system.cpu.commit.branchMispredicts              1043                       # The number of times a branch was mispredicted (Count)
system.cpu.commit.numCommittedDist::samples      2083910                       # Number of insts commited each cycle (Count)
system.cpu.commit.numCommittedDist::mean     0.257760                       # Number of insts commited each cycle (Count)
system.cpu.commit.numCommittedDist::stdev     1.159512                       # Number of insts commited each cycle (Count)
system.cpu.commit.numCommittedDist::underflows            0      0.00%      0.00% # Number of insts commited each cycle (Count)
system.cpu.commit.numCommittedDist::0         1905896     91.46%     91.46% # Number of insts commited each cycle (Count)
system.cpu.commit.numCommittedDist::1           97184      4.66%     96.12% # Number of insts commited each cycle (Count)
system.cpu.commit.numCommittedDist::2           11865      0.57%     96.69% # Number of insts commited each cycle (Count)
system.cpu.commit.numCommittedDist::3           10456      0.50%     97.19% # Number of insts commited each cycle (Count)
system.cpu.commit.numCommittedDist::4           13969      0.67%     97.86% # Number of insts commited each cycle (Count)
system.cpu.commit.numCommittedDist::5            3386      0.16%     98.03% # Number of insts commited each cycle (Count)
system.cpu.commit.numCommittedDist::6            8506      0.41%     98.43% # Number of insts commited each cycle (Count)
system.cpu.commit.numCommittedDist::7             159      0.01%     98.44% # Number of insts commited each cycle (Count)
system.cpu.commit.numCommittedDist::8           32489      1.56%    100.00% # Number of insts commited each cycle (Count)
system.cpu.commit.numCommittedDist::overflows            0      0.00%    100.00% # Number of insts commited each cycle (Count)
system.cpu.commit.numCommittedDist::min_value            0                       # Number of insts commited each cycle (Count)
system.cpu.commit.numCommittedDist::max_value            8                       # Number of insts commited each cycle (Count)
system.cpu.commit.numCommittedDist::total      2083910                       # Number of insts commited each cycle (Count)
system.cpu.commit.amos                              0                       # Number of atomic instructions committed (Count)
system.cpu.commit.membars                          32                       # Number of memory barriers committed (Count)
system.cpu.commit.functionCalls                   194                       # Number of function calls committed. (Count)
system.cpu.commit.committedInstType_0::No_OpClass          227      0.04%      0.04% # Class of committed instruction (Count)
system.cpu.commit.committedInstType_0::IntAlu       366425     68.22%     68.26% # Class of committed instruction (Count)
system.cpu.commit.committedInstType_0::IntMult         8004      1.49%     69.75% # Class of committed instruction (Count)
system.cpu.commit.committedInstType_0::IntDiv           28      0.01%     69.75% # Class of committed instruction (Count)
system.cpu.commit.committedInstType_0::FloatAdd          182      0.03%     69.79% # Class of committed instruction (Count)
system.cpu.commit.committedInstType_0::FloatCmp            0      0.00%     69.79% # Class of committed instruction (Count)
system.cpu.commit.committedInstType_0::FloatCvt            0      0.00%     69.79% # Class of committed instruction (Count)
system.cpu.commit.committedInstType_0::FloatMult            0      0.00%     69.79% # Class of committed instruction (Count)
system.cpu.commit.committedInstType_0::FloatMultAcc            0      0.00%     69.79% # Class of committed instruction (Count)
system.cpu.commit.committedInstType_0::FloatDiv            0      0.00%     69.79% # Class of committed instruction (Count)
system.cpu.commit.committedInstType_0::FloatMisc            0      0.00%     69.79% # Class of committed instruction (Count)
system.cpu.commit.committedInstType_0::FloatSqrt            0      0.00%     69.79% # Class of committed instruction (Count)
system.cpu.commit.committedInstType_0::SimdAdd            8      0.00%     69.79% # Class of committed instruction (Count)
system.cpu.commit.committedInstType_0::SimdAddAcc            0      0.00%     69.79% # Class of committed instruction (Count)
system.cpu.commit.committedInstType_0::SimdAlu          106      0.02%     69.81% # Class of committed instruction (Count)
system.cpu.commit.committedInstType_0::SimdCmp            0      0.00%     69.81% # Class of committed instruction (Count)
system.cpu.commit.committedInstType_0::SimdCvt           62      0.01%     69.82% # Class of committed instruction (Count)
system.cpu.commit.committedInstType_0::SimdMisc          251      0.05%     69.87% # Class of committed instruction (Count)
system.cpu.commit.committedInstType_0::SimdMult            0      0.00%     69.87% # Class of committed instruction (Count)
system.cpu.commit.committedInstType_0::SimdMultAcc            0      0.00%     69.87% # Class of committed instruction (Count)
system.cpu.commit.committedInstType_0::SimdMatMultAcc            0      0.00%     69.87% # Class of committed instruction (Count)
system.cpu.commit.committedInstType_0::SimdShift            0      0.00%     69.87% # Class of committed instruction (Count)
system.cpu.commit.committedInstType_0::SimdShiftAcc            0      0.00%     69.87% # Class of committed instruction (Count)
system.cpu.commit.committedInstType_0::SimdDiv            0      0.00%     69.87% # Class of committed instruction (Count)
system.cpu.commit.committedInstType_0::SimdSqrt            0      0.00%     69.87% # Class of committed instruction (Count)
system.cpu.commit.committedInstType_0::SimdFloatAdd            0      0.00%     69.87% # Class of committed instruction (Count)
system.cpu.commit.committedInstType_0::SimdFloatAlu            0      0.00%     69.87% # Class of committed instruction (Count)
system.cpu.commit.committedInstType_0::SimdFloatCmp            0      0.00%     69.87% # Class of committed instruction (Count)
system.cpu.commit.committedInstType_0::SimdFloatCvt            0      0.00%     69.87% # Class of committed instruction (Count)
system.cpu.commit.committedInstType_0::SimdFloatDiv            0      0.00%     69.87% # Class of committed instruction (Count)
system.cpu.commit.committedInstType_0::SimdFloatMisc            0      0.00%     69.87% # Class of committed instruction (Count)
system.cpu.commit.committedInstType_0::SimdFloatMult            0      0.00%     69.87% # Class of committed instruction (Count)
system.cpu.commit.committedInstType_0::SimdFloatMultAcc            0      0.00%     69.87% # Class of committed instruction (Count)
system.cpu.commit.committedInstType_0::SimdFloatMatMultAcc            0      0.00%     69.87% # Class of committed instruction (Count)
system.cpu.commit.committedInstType_0::SimdFloatSqrt            0      0.00%     69.87% # Class of committed instruction (Count)
system.cpu.commit.committedInstType_0::SimdReduceAdd            0      0.00%     69.87% # Class of committed instruction (Count)
system.cpu.commit.committedInstType_0::SimdReduceAlu            0      0.00%     69.87% # Class of committed instruction (Count)
system.cpu.commit.committedInstType_0::SimdReduceCmp            0      0.00%     69.87% # Class of committed instruction (Count)
system.cpu.commit.committedInstType_0::SimdFloatReduceAdd            0      0.00%     69.87% # Class of committed instruction (Count)
system.cpu.commit.committedInstType_0::SimdFloatReduceCmp            0      0.00%     69.87% # Class of committed instruction (Count)
system.cpu.commit.committedInstType_0::SimdAes            0      0.00%     69.87% # Class of committed instruction (Count)
system.cpu.commit.committedInstType_0::SimdAesMix            0      0.00%     69.87% # Class of committed instruction (Count)
system.cpu.commit.committedInstType_0::SimdSha1Hash            0      0.00%     69.87% # Class of committed instruction (Count)
system.cpu.commit.committedInstType_0::SimdSha1Hash2            0      0.00%     69.87% # Class of committed instruction (Count)
system.cpu.commit.committedInstType_0::SimdSha256Hash            0      0.00%     69.87% # Class of committed instruction (Count)
system.cpu.commit.committedInstType_0::SimdSha256Hash2            0      0.00%     69.87% # Class of committed instruction (Count)
system.cpu.commit.committedInstType_0::SimdShaSigma2            0      0.00%     69.87% # Class of committed instruction (Count)
system.cpu.commit.committedInstType_0::SimdShaSigma3            0      0.00%     69.87% # Class of committed instruction (Count)
system.cpu.commit.committedInstType_0::SimdPredAlu            0      0.00%     69.87% # Class of committed instruction (Count)
system.cpu.commit.committedInstType_0::Matrix            0      0.00%     69.87% # Class of committed instruction (Count)
system.cpu.commit.committedInstType_0::MatrixMov            0      0.00%     69.87% # Class of committed instruction (Count)
system.cpu.commit.committedInstType_0::MatrixOP            0      0.00%     69.87% # Class of committed instruction (Count)
system.cpu.commit.committedInstType_0::MemRead       141610     26.36%     96.23% # Class of committed instruction (Count)
system.cpu.commit.committedInstType_0::MemWrite        19557      3.64%     99.87% # Class of committed instruction (Count)
system.cpu.commit.committedInstType_0::FloatMemRead          140      0.03%     99.90% # Class of committed instruction (Count)
system.cpu.commit.committedInstType_0::FloatMemWrite          549      0.10%    100.00% # Class of committed instruction (Count)
system.cpu.commit.committedInstType_0::IprAccess            0      0.00%    100.00% # Class of committed instruction (Count)
system.cpu.commit.committedInstType_0::InstPrefetch            0      0.00%    100.00% # Class of committed instruction (Count)
system.cpu.commit.committedInstType_0::SimdUnitStrideLoad            0      0.00%    100.00% # Class of committed instruction (Count)
system.cpu.commit.committedInstType_0::SimdUnitStrideStore            0      0.00%    100.00% # Class of committed instruction (Count)
system.cpu.commit.committedInstType_0::SimdUnitStrideMaskLoad            0      0.00%    100.00% # Class of committed instruction (Count)
system.cpu.commit.committedInstType_0::SimdUnitStrideMaskStore            0      0.00%    100.00% # Class of committed instruction (Count)
system.cpu.commit.committedInstType_0::SimdStridedLoad            0      0.00%    100.00% # Class of committed instruction (Count)
system.cpu.commit.committedInstType_0::SimdStridedStore            0      0.00%    100.00% # Class of committed instruction (Count)
system.cpu.commit.committedInstType_0::SimdIndexedLoad            0      0.00%    100.00% # Class of committed instruction (Count)
system.cpu.commit.committedInstType_0::SimdIndexedStore            0      0.00%    100.00% # Class of committed instruction (Count)
system.cpu.commit.committedInstType_0::SimdWholeRegisterLoad            0      0.00%    100.00% # Class of committed instruction (Count)
system.cpu.commit.committedInstType_0::SimdWholeRegisterStore            0      0.00%    100.00% # Class of committed instruction (Count)
system.cpu.commit.committedInstType_0::SimdUnitStrideFaultOnlyFirstLoad            0      0.00%    100.00% # Class of committed instruction (Count)
system.cpu.commit.committedInstType_0::SimdUnitStrideSegmentedLoad            0      0.00%    100.00% # Class of committed instruction (Count)
system.cpu.commit.committedInstType_0::SimdUnitStrideSegmentedStore            0      0.00%    100.00% # Class of committed instruction (Count)
system.cpu.commit.committedInstType_0::SimdExt            0      0.00%    100.00% # Class of committed instruction (Count)
system.cpu.commit.committedInstType_0::SimdFloatExt            0      0.00%    100.00% # Class of committed instruction (Count)
system.cpu.commit.committedInstType_0::SimdConfig            0      0.00%    100.00% # Class of committed instruction (Count)
system.cpu.commit.committedInstType_0::total       537149                       # Class of committed instruction (Count)
system.cpu.commit.commitEligibleSamples         32489                       # number cycles where commit BW limit reached (Cycle)
system.cpu.commitStats0.numInsts               443675                       # Number of instructions committed (thread level) (Count)
system.cpu.commitStats0.numOps                 537149                       # Number of ops (including micro ops) committed (thread level) (Count)
system.cpu.commitStats0.numInstsNotNOP         443675                       # Number of instructions committed excluding NOPs or prefetches (Count)
system.cpu.commitStats0.numOpsNotNOP           537149                       # Number of Ops (including micro ops) Simulated (Count)
system.cpu.commitStats0.cpi                  8.637383                       # CPI: cycles per instruction (thread level) ((Cycle/Count))
system.cpu.commitStats0.ipc                  0.115776                       # IPC: instructions per cycle (thread level) ((Count/Cycle))
system.cpu.commitStats0.numMemRefs             161856                       # Number of memory references committed (Count)
system.cpu.commitStats0.numFpInsts               1462                       # Number of float instructions (Count)
system.cpu.commitStats0.numIntInsts            535836                       # Number of integer instructions (Count)
system.cpu.commitStats0.numLoadInsts           141750                       # Number of load instructions (Count)
system.cpu.commitStats0.numStoreInsts           20106                       # Number of store instructions (Count)
system.cpu.commitStats0.numVecInsts                 0                       # Number of vector instructions (Count)
system.cpu.commitStats0.committedInstType::No_OpClass          227      0.04%      0.04% # Class of committed instruction. (Count)
system.cpu.commitStats0.committedInstType::IntAlu       366425     68.22%     68.26% # Class of committed instruction. (Count)
system.cpu.commitStats0.committedInstType::IntMult         8004      1.49%     69.75% # Class of committed instruction. (Count)
system.cpu.commitStats0.committedInstType::IntDiv           28      0.01%     69.75% # Class of committed instruction. (Count)
system.cpu.commitStats0.committedInstType::FloatAdd          182      0.03%     69.79% # Class of committed instruction. (Count)
system.cpu.commitStats0.committedInstType::FloatCmp            0      0.00%     69.79% # Class of committed instruction. (Count)
system.cpu.commitStats0.committedInstType::FloatCvt            0      0.00%     69.79% # Class of committed instruction. (Count)
system.cpu.commitStats0.committedInstType::FloatMult            0      0.00%     69.79% # Class of committed instruction. (Count)
system.cpu.commitStats0.committedInstType::FloatMultAcc            0      0.00%     69.79% # Class of committed instruction. (Count)
system.cpu.commitStats0.committedInstType::FloatDiv            0      0.00%     69.79% # Class of committed instruction. (Count)
system.cpu.commitStats0.committedInstType::FloatMisc            0      0.00%     69.79% # Class of committed instruction. (Count)
system.cpu.commitStats0.committedInstType::FloatSqrt            0      0.00%     69.79% # Class of committed instruction. (Count)
system.cpu.commitStats0.committedInstType::SimdAdd            8      0.00%     69.79% # Class of committed instruction. (Count)
system.cpu.commitStats0.committedInstType::SimdAddAcc            0      0.00%     69.79% # Class of committed instruction. (Count)
system.cpu.commitStats0.committedInstType::SimdAlu          106      0.02%     69.81% # Class of committed instruction. (Count)
system.cpu.commitStats0.committedInstType::SimdCmp            0      0.00%     69.81% # Class of committed instruction. (Count)
system.cpu.commitStats0.committedInstType::SimdCvt           62      0.01%     69.82% # Class of committed instruction. (Count)
system.cpu.commitStats0.committedInstType::SimdMisc          251      0.05%     69.87% # Class of committed instruction. (Count)
system.cpu.commitStats0.committedInstType::SimdMult            0      0.00%     69.87% # Class of committed instruction. (Count)
system.cpu.commitStats0.committedInstType::SimdMultAcc            0      0.00%     69.87% # Class of committed instruction. (Count)
system.cpu.commitStats0.committedInstType::SimdMatMultAcc            0      0.00%     69.87% # Class of committed instruction. (Count)
system.cpu.commitStats0.committedInstType::SimdShift            0      0.00%     69.87% # Class of committed instruction. (Count)
system.cpu.commitStats0.committedInstType::SimdShiftAcc            0      0.00%     69.87% # Class of committed instruction. (Count)
system.cpu.commitStats0.committedInstType::SimdDiv            0      0.00%     69.87% # Class of committed instruction. (Count)
system.cpu.commitStats0.committedInstType::SimdSqrt            0      0.00%     69.87% # Class of committed instruction. (Count)
system.cpu.commitStats0.committedInstType::SimdFloatAdd            0      0.00%     69.87% # Class of committed instruction. (Count)
system.cpu.commitStats0.committedInstType::SimdFloatAlu            0      0.00%     69.87% # Class of committed instruction. (Count)
system.cpu.commitStats0.committedInstType::SimdFloatCmp            0      0.00%     69.87% # Class of committed instruction. (Count)
system.cpu.commitStats0.committedInstType::SimdFloatCvt            0      0.00%     69.87% # Class of committed instruction. (Count)
system.cpu.commitStats0.committedInstType::SimdFloatDiv            0      0.00%     69.87% # Class of committed instruction. (Count)
system.cpu.commitStats0.committedInstType::SimdFloatMisc            0      0.00%     69.87% # Class of committed instruction. (Count)
system.cpu.commitStats0.committedInstType::SimdFloatMult            0      0.00%     69.87% # Class of committed instruction. (Count)
system.cpu.commitStats0.committedInstType::SimdFloatMultAcc            0      0.00%     69.87% # Class of committed instruction. (Count)
system.cpu.commitStats0.committedInstType::SimdFloatMatMultAcc            0      0.00%     69.87% # Class of committed instruction. (Count)
system.cpu.commitStats0.committedInstType::SimdFloatSqrt            0      0.00%     69.87% # Class of committed instruction. (Count)
system.cpu.commitStats0.committedInstType::SimdReduceAdd            0      0.00%     69.87% # Class of committed instruction. (Count)
system.cpu.commitStats0.committedInstType::SimdReduceAlu            0      0.00%     69.87% # Class of committed instruction. (Count)
system.cpu.commitStats0.committedInstType::SimdReduceCmp            0      0.00%     69.87% # Class of committed instruction. (Count)
system.cpu.commitStats0.committedInstType::SimdFloatReduceAdd            0      0.00%     69.87% # Class of committed instruction. (Count)
system.cpu.commitStats0.committedInstType::SimdFloatReduceCmp            0      0.00%     69.87% # Class of committed instruction. (Count)
system.cpu.commitStats0.committedInstType::SimdAes            0      0.00%     69.87% # Class of committed instruction. (Count)
system.cpu.commitStats0.committedInstType::SimdAesMix            0      0.00%     69.87% # Class of committed instruction. (Count)
system.cpu.commitStats0.committedInstType::SimdSha1Hash            0      0.00%     69.87% # Class of committed instruction. (Count)
system.cpu.commitStats0.committedInstType::SimdSha1Hash2            0      0.00%     69.87% # Class of committed instruction. (Count)
system.cpu.commitStats0.committedInstType::SimdSha256Hash            0      0.00%     69.87% # Class of committed instruction. (Count)
system.cpu.commitStats0.committedInstType::SimdSha256Hash2            0      0.00%     69.87% # Class of committed instruction. (Count)
system.cpu.commitStats0.committedInstType::SimdShaSigma2            0      0.00%     69.87% # Class of committed instruction. (Count)
system.cpu.commitStats0.committedInstType::SimdShaSigma3            0      0.00%     69.87% # Class of committed instruction. (Count)
system.cpu.commitStats0.committedInstType::SimdPredAlu            0      0.00%     69.87% # Class of committed instruction. (Count)
system.cpu.commitStats0.committedInstType::Matrix            0      0.00%     69.87% # Class of committed instruction. (Count)
system.cpu.commitStats0.committedInstType::MatrixMov            0      0.00%     69.87% # Class of committed instruction. (Count)
system.cpu.commitStats0.committedInstType::MatrixOP            0      0.00%     69.87% # Class of committed instruction. (Count)
system.cpu.commitStats0.committedInstType::MemRead       141610     26.36%     96.23% # Class of committed instruction. (Count)
system.cpu.commitStats0.committedInstType::MemWrite        19557      3.64%     99.87% # Class of committed instruction. (Count)
system.cpu.commitStats0.committedInstType::FloatMemRead          140      0.03%     99.90% # Class of committed instruction. (Count)
system.cpu.commitStats0.committedInstType::FloatMemWrite          549      0.10%    100.00% # Class of committed instruction. (Count)
system.cpu.commitStats0.committedInstType::IprAccess            0      0.00%    100.00% # Class of committed instruction. (Count)
system.cpu.commitStats0.committedInstType::InstPrefetch            0      0.00%    100.00% # Class of committed instruction. (Count)
system.cpu.commitStats0.committedInstType::SimdUnitStrideLoad            0      0.00%    100.00% # Class of committed instruction. (Count)
system.cpu.commitStats0.committedInstType::SimdUnitStrideStore            0      0.00%    100.00% # Class of committed instruction. (Count)
system.cpu.commitStats0.committedInstType::SimdUnitStrideMaskLoad            0      0.00%    100.00% # Class of committed instruction. (Count)
system.cpu.commitStats0.committedInstType::SimdUnitStrideMaskStore            0      0.00%    100.00% # Class of committed instruction. (Count)
system.cpu.commitStats0.committedInstType::SimdStridedLoad            0      0.00%    100.00% # Class of committed instruction. (Count)
system.cpu.commitStats0.committedInstType::SimdStridedStore            0      0.00%    100.00% # Class of committed instruction. (Count)
system.cpu.commitStats0.committedInstType::SimdIndexedLoad            0      0.00%    100.00% # Class of committed instruction. (Count)
system.cpu.commitStats0.committedInstType::SimdIndexedStore            0      0.00%    100.00% # Class of committed instruction. (Count)
system.cpu.commitStats0.committedInstType::SimdWholeRegisterLoad            0      0.00%    100.00% # Class of committed instruction. (Count)
system.cpu.commitStats0.committedInstType::SimdWholeRegisterStore            0      0.00%    100.00% # Class of committed instruction. (Count)
system.cpu.commitStats0.committedInstType::SimdUnitStrideFaultOnlyFirstLoad            0      0.00%    100.00% # Class of committed instruction. (Count)
system.cpu.commitStats0.committedInstType::SimdUnitStrideSegmentedLoad            0      0.00%    100.00% # Class of committed instruction. (Count)
system.cpu.commitStats0.committedInstType::SimdUnitStrideSegmentedStore            0      0.00%    100.00% # Class of committed instruction. (Count)
system.cpu.commitStats0.committedInstType::SimdExt            0      0.00%    100.00% # Class of committed instruction. (Count)
system.cpu.commitStats0.committedInstType::SimdFloatExt            0      0.00%    100.00% # Class of committed instruction. (Count)
system.cpu.commitStats0.committedInstType::SimdConfig            0      0.00%    100.00% # Class of committed instruction. (Count)
system.cpu.commitStats0.committedInstType::total       537149                       # Class of committed instruction. (Count)
system.cpu.commitStats0.committedControl::IsControl        12274                       # Class of control type instructions committed (Count)
system.cpu.commitStats0.committedControl::IsDirectControl        12001                       # Class of control type instructions committed (Count)
system.cpu.commitStats0.committedControl::IsIndirectControl          273                       # Class of control type instructions committed (Count)
system.cpu.commitStats0.committedControl::IsCondControl        11262                       # Class of control type instructions committed (Count)
system.cpu.commitStats0.committedControl::IsUncondControl         1012                       # Class of control type instructions committed (Count)
system.cpu.commitStats0.committedControl::IsCall          194                       # Class of control type instructions committed (Count)
system.cpu.commitStats0.committedControl::IsReturn          189                       # Class of control type instructions committed (Count)
system.cpu.decode.idleCycles                  1976515                       # Number of cycles decode is idle (Cycle)
system.cpu.decode.blockedCycles                 19376                       # Number of cycles decode is blocked (Cycle)
system.cpu.decode.runCycles                     88926                       # Number of cycles decode is running (Cycle)
system.cpu.decode.unblockCycles                   602                       # Number of cycles decode is unblocking (Cycle)
system.cpu.decode.squashCycles                   1080                       # Number of cycles decode is squashing (Cycle)
system.cpu.decode.branchResolved                11393                       # Number of times decode resolved a branch (Count)
system.cpu.decode.branchMispred                   298                       # Number of times decode detected a branch misprediction (Count)
system.cpu.decode.decodedInsts                 551030                       # Number of instructions handled by decode (Count)
system.cpu.decode.squashedInsts                  1480                       # Number of squashed instructions handled by decode (Count)
system.cpu.executeStats0.numInsts              588197                       # Number of executed instructions (Count)
system.cpu.executeStats0.numNop                     0                       # Number of nop insts executed (Count)
system.cpu.executeStats0.numBranches            12910                       # Number of branches executed (Count)
system.cpu.executeStats0.numLoadInsts          185394                       # Number of load instructions executed (Count)
system.cpu.executeStats0.numStoreInsts          20649                       # Number of stores executed (Count)
system.cpu.executeStats0.instRate            0.153488                       # Inst execution rate ((Count/Cycle))
system.cpu.executeStats0.numCCRegReads         124881                       # Number of times the CC registers were read (Count)
system.cpu.executeStats0.numCCRegWrites        328484                       # Number of times the CC registers were written (Count)
system.cpu.executeStats0.numFpRegReads           1776                       # Number of times the floating registers were read (Count)
system.cpu.executeStats0.numFpRegWrites           979                       # Number of times the floating registers were written (Count)
system.cpu.executeStats0.numIntRegReads        854847                       # Number of times the integer registers were read (Count)
system.cpu.executeStats0.numIntRegWrites       498637                       # Number of times the integer registers were written (Count)
system.cpu.executeStats0.numMemRefs            206043                       # Number of memory refs (Count)
system.cpu.executeStats0.numMiscRegReads       232323                       # Number of times the Misc registers were read (Count)
system.cpu.executeStats0.numVecAluAccesses            0                       # Number of vector alu accesses (Count)
system.cpu.executeStats0.numDiscardedOps            0                       # Number of ops (including micro ops) which were discarded before commit (Count)
system.cpu.fetch.predictedBranches              11498                       # Number of branches that fetch has predicted taken (Count)
system.cpu.fetch.cycles                        106227                       # Number of cycles fetch has run and was not squashing or blocked (Cycle)
system.cpu.fetch.squashCycles                    2756                       # Number of cycles fetch has spent squashing (Cycle)
system.cpu.fetch.miscStallCycles                   24                       # Number of cycles fetch has spent waiting on interrupts, or bad addresses, or out of MSHRs (Cycle)
system.cpu.fetch.pendingTrapStallCycles            58                       # Number of stall cycles due to pending traps (Cycle)
system.cpu.fetch.cacheLines                     37605                       # Number of cache lines fetched (Count)
system.cpu.fetch.icacheSquashes                  1177                       # Number of outstanding Icache misses that were squashed (Count)
[...]
system.mem_ctrl.dram.bwTotal::cpu.data      199305880                       # Total bandwidth to/from this memory ((Byte/Second))
system.mem_ctrl.dram.bwTotal::total         827333196                       # Total bandwidth to/from this memory ((Byte/Second))
system.mem_ctrl.dram.readBursts                154310                       # Number of DRAM read bursts (Count)
system.mem_ctrl.dram.writeBursts                  313                       # Number of DRAM write bursts (Count)
system.mem_ctrl.dram.perBankRdBursts::0           618                       # Per bank write bursts (Count)
system.mem_ctrl.dram.perBankRdBursts::1           410                       # Per bank write bursts (Count)
system.mem_ctrl.dram.perBankRdBursts::2           194                       # Per bank write bursts (Count)
system.mem_ctrl.dram.perBankRdBursts::3           219                       # Per bank write bursts (Count)
system.mem_ctrl.dram.perBankRdBursts::4           107                       # Per bank write bursts (Count)
system.mem_ctrl.dram.perBankRdBursts::5          9806                       # Per bank write bursts (Count)
system.mem_ctrl.dram.perBankRdBursts::6        118576                       # Per bank write bursts (Count)
system.mem_ctrl.dram.perBankRdBursts::7          5227                       # Per bank write bursts (Count)
system.mem_ctrl.dram.perBankRdBursts::8           187                       # Per bank write bursts (Count)
system.mem_ctrl.dram.perBankRdBursts::9            94                       # Per bank write bursts (Count)
system.mem_ctrl.dram.perBankRdBursts::10           93                       # Per bank write bursts (Count)
system.mem_ctrl.dram.perBankRdBursts::11          108                       # Per bank write bursts (Count)
system.mem_ctrl.dram.perBankRdBursts::12          179                       # Per bank write bursts (Count)
system.mem_ctrl.dram.perBankRdBursts::13          100                       # Per bank write bursts (Count)
system.mem_ctrl.dram.perBankRdBursts::14          201                       # Per bank write bursts (Count)
system.mem_ctrl.dram.perBankRdBursts::15          181                       # Per bank write bursts (Count)
system.mem_ctrl.dram.perBankRdBursts::16          111                       # Per bank write bursts (Count)
system.mem_ctrl.dram.perBankRdBursts::17           88                       # Per bank write bursts (Count)
system.mem_ctrl.dram.perBankRdBursts::18           74                       # Per bank write bursts (Count)
system.mem_ctrl.dram.perBankRdBursts::19           66                       # Per bank write bursts (Count)
system.mem_ctrl.dram.perBankRdBursts::20          196                       # Per bank write bursts (Count)
system.mem_ctrl.dram.perBankRdBursts::21          285                       # Per bank write bursts (Count)
system.mem_ctrl.dram.perBankRdBursts::22           75                       # Per bank write bursts (Count)
system.mem_ctrl.dram.perBankRdBursts::23           26                       # Per bank write bursts (Count)
system.mem_ctrl.dram.perBankRdBursts::24         5255                       # Per bank write bursts (Count)
system.mem_ctrl.dram.perBankRdBursts::25         5092                       # Per bank write bursts (Count)
system.mem_ctrl.dram.perBankRdBursts::26         5029                       # Per bank write bursts (Count)
system.mem_ctrl.dram.perBankRdBursts::27         1326                       # Per bank write bursts (Count)
system.mem_ctrl.dram.perBankRdBursts::28          150                       # Per bank write bursts (Count)
system.mem_ctrl.dram.perBankRdBursts::29           30                       # Per bank write bursts (Count)
system.mem_ctrl.dram.perBankRdBursts::30           62                       # Per bank write bursts (Count)
system.mem_ctrl.dram.perBankRdBursts::31          145                       # Per bank write bursts (Count)
system.mem_ctrl.dram.perBankWrBursts::0            10                       # Per bank write bursts (Count)
system.mem_ctrl.dram.perBankWrBursts::1             4                       # Per bank write bursts (Count)
system.mem_ctrl.dram.perBankWrBursts::2             3                       # Per bank write bursts (Count)
system.mem_ctrl.dram.perBankWrBursts::3            12                       # Per bank write bursts (Count)
system.mem_ctrl.dram.perBankWrBursts::4             1                       # Per bank write bursts (Count)
system.mem_ctrl.dram.perBankWrBursts::5             2                       # Per bank write bursts (Count)
system.mem_ctrl.dram.perBankWrBursts::6            24                       # Per bank write bursts (Count)
system.mem_ctrl.dram.perBankWrBursts::7            20                       # Per bank write bursts (Count)
system.mem_ctrl.dram.perBankWrBursts::8            19                       # Per bank write bursts (Count)
system.mem_ctrl.dram.perBankWrBursts::9            18                       # Per bank write bursts (Count)
system.mem_ctrl.dram.perBankWrBursts::10            0                       # Per bank write bursts (Count)
system.mem_ctrl.dram.perBankWrBursts::11            0                       # Per bank write bursts (Count)
system.mem_ctrl.dram.perBankWrBursts::12            0                       # Per bank write bursts (Count)
system.mem_ctrl.dram.perBankWrBursts::13            0                       # Per bank write bursts (Count)
system.mem_ctrl.dram.perBankWrBursts::14            0                       # Per bank write bursts (Count)
system.mem_ctrl.dram.perBankWrBursts::15            0                       # Per bank write bursts (Count)
system.mem_ctrl.dram.perBankWrBursts::16            0                       # Per bank write bursts (Count)
system.mem_ctrl.dram.perBankWrBursts::17            0                       # Per bank write bursts (Count)
system.mem_ctrl.dram.perBankWrBursts::18            1                       # Per bank write bursts (Count)
system.mem_ctrl.dram.perBankWrBursts::19            3                       # Per bank write bursts (Count)
system.mem_ctrl.dram.perBankWrBursts::20           18                       # Per bank write bursts (Count)
system.mem_ctrl.dram.perBankWrBursts::21           12                       # Per bank write bursts (Count)
system.mem_ctrl.dram.perBankWrBursts::22            6                       # Per bank write bursts (Count)
system.mem_ctrl.dram.perBankWrBursts::23            3                       # Per bank write bursts (Count)
system.mem_ctrl.dram.perBankWrBursts::24           21                       # Per bank write bursts (Count)
system.mem_ctrl.dram.perBankWrBursts::25           23                       # Per bank write bursts (Count)
system.mem_ctrl.dram.perBankWrBursts::26           51                       # Per bank write bursts (Count)
system.mem_ctrl.dram.perBankWrBursts::27           44                       # Per bank write bursts (Count)
system.mem_ctrl.dram.perBankWrBursts::28           10                       # Per bank write bursts (Count)
system.mem_ctrl.dram.perBankWrBursts::29            7                       # Per bank write bursts (Count)
system.mem_ctrl.dram.perBankWrBursts::30            1                       # Per bank write bursts (Count)
system.mem_ctrl.dram.perBankWrBursts::31            0                       # Per bank write bursts (Count)
system.mem_ctrl.dram.totQLat              12760904982                       # Total ticks spent queuing (Tick)
system.mem_ctrl.dram.totBusLat              560453920                       # Total ticks spent in databus transfers (Tick)
system.mem_ctrl.dram.totMemAccLat         15565797852                       # Total ticks spent from burst creation until serviced by the DRAM (Tick)
system.mem_ctrl.dram.avgQLat                 82696.55                       # Average queueing delay per DRAM burst ((Tick/Count))
system.mem_ctrl.dram.avgBusLat                3632.00                       # Average bus latency per DRAM burst ((Tick/Count))
system.mem_ctrl.dram.avgMemAccLat           100873.55                       # Average memory access latency per DRAM burst ((Tick/Count))
system.mem_ctrl.dram.readRowHits                49877                       # Number of row buffer hits during reads (Count)
system.mem_ctrl.dram.writeRowHits                 217                       # Number of row buffer hits during writes (Count)
system.mem_ctrl.dram.readRowHitRate             32.32                       # Row buffer hit rate for reads (Ratio)
system.mem_ctrl.dram.writeRowHitRate            69.33                       # Row buffer hit rate for writes (Ratio)
system.mem_ctrl.dram.bytesPerActivate::samples       104529                       # Bytes accessed per row activation (Byte)
system.mem_ctrl.dram.bytesPerActivate::mean    94.671067                       # Bytes accessed per row activation (Byte)
system.mem_ctrl.dram.bytesPerActivate::gmean    79.254589                       # Bytes accessed per row activation (Byte)
system.mem_ctrl.dram.bytesPerActivate::stdev    76.792055                       # Bytes accessed per row activation (Byte)
system.mem_ctrl.dram.bytesPerActivate::0-127        88050     84.23%     84.23% # Bytes accessed per row activation (Byte)
system.mem_ctrl.dram.bytesPerActivate::128-255         8166      7.81%     92.05% # Bytes accessed per row activation (Byte)
system.mem_ctrl.dram.bytesPerActivate::256-383         7758      7.42%     99.47% # Bytes accessed per row activation (Byte)
system.mem_ctrl.dram.bytesPerActivate::384-511          485      0.46%     99.93% # Bytes accessed per row activation (Byte)
system.mem_ctrl.dram.bytesPerActivate::512-639           53      0.05%     99.98% # Bytes accessed per row activation (Byte)
system.mem_ctrl.dram.bytesPerActivate::640-767            4      0.00%     99.99% # Bytes accessed per row activation (Byte)
system.mem_ctrl.dram.bytesPerActivate::768-895            5      0.00%     99.99% # Bytes accessed per row activation (Byte)
system.mem_ctrl.dram.bytesPerActivate::1024-1151            8      0.01%    100.00% # Bytes accessed per row activation (Byte)
system.mem_ctrl.dram.bytesPerActivate::total       104529                       # Bytes accessed per row activation (Byte)
system.mem_ctrl.dram.dramBytesRead            9875840                       # Total bytes read (Byte)
system.mem_ctrl.dram.dramBytesWritten           20032                       # Total bytes written (Byte)
system.mem_ctrl.dram.avgRdBW              2577.074728                       # Average DRAM read bandwidth in MiBytes/s ((Byte/Second))
system.mem_ctrl.dram.avgWrBW                 5.227298                       # Average DRAM write bandwidth in MiBytes/s ((Byte/Second))
system.mem_ctrl.dram.peakBW                  17621.00                       # Theoretical peak bandwidth in MiByte/s ((Byte/Second))
system.mem_ctrl.dram.busUtil                    14.65                       # Data bus utilization in percentage (Ratio)
system.mem_ctrl.dram.busUtilRead                14.63                       # Data bus utilization in percentage for reads (Ratio)
system.mem_ctrl.dram.busUtilWrite                0.03                       # Data bus utilization in percentage for writes (Ratio)
system.mem_ctrl.dram.pageHitRate                32.40                       # Row buffer hit rate, read and write combined (Ratio)
system.mem_ctrl.dram.power_state.pwrStateResidencyTicks::UNDEFINED   3832190000                       # Cumulative time (in ticks) in various power states (Tick)
system.mem_ctrl.dram.rank0.actEnergy     -296506125.168001                       # Energy for activate commands per rank (pJ) (Joule)
system.mem_ctrl.dram.rank0.preEnergy     200454845.184001                       # Energy for precharge commands per rank (pJ) (Joule)
system.mem_ctrl.dram.rank0.readEnergy    956806932.224002                       # Energy for read commands per rank (pJ) (Joule)
system.mem_ctrl.dram.rank0.writeEnergy   1685670.764800                       # Energy for write commands per rank (pJ) (Joule)
system.mem_ctrl.dram.rank0.refreshEnergy 172835348.400003                       # Energy for refresh commands per rank (pJ) (Joule)
system.mem_ctrl.dram.rank0.actBackEnergy 1761232597.660800                       # Energy for active background per rank (pJ) (Joule)
system.mem_ctrl.dram.rank0.preBackEnergy 410190396.140800                       # Energy for precharge background per rank (pJ) (Joule)
system.mem_ctrl.dram.rank0.actPowerDownEnergy            0                       # Energy for active power-down per rank (pJ) (Joule)
system.mem_ctrl.dram.rank0.prePowerDownEnergy            0                       # Energy for precharge power-down per rank (pJ) (Joule)
system.mem_ctrl.dram.rank0.selfRefreshEnergy            0                       # Energy for self refresh per rank (pJ) (Joule)
system.mem_ctrl.dram.rank0.totalEnergy   3206699665.206400                       # Total energy per rank (pJ) (Joule)
system.mem_ctrl.dram.rank0.averagePower    836.779926                       # Core power per rank (mW) (Watt)
system.mem_ctrl.dram.rank0.totalIdleTime            0                       # Total Idle time Per DRAM Rank (Tick)
system.mem_ctrl.dram.rank0.pwrStateTime::IDLE     58914570                       # Time in different power states (Tick)
system.mem_ctrl.dram.rank0.pwrStateTime::REF    290870000                       # Time in different power states (Tick)
system.mem_ctrl.dram.rank0.pwrStateTime::SREF            0                       # Time in different power states (Tick)
system.mem_ctrl.dram.rank0.pwrStateTime::PRE_PDN            0                       # Time in different power states (Tick)
system.mem_ctrl.dram.rank0.pwrStateTime::ACT   3482405430                       # Time in different power states (Tick)
system.mem_ctrl.dram.rank0.pwrStateTime::ACT_PDN            0                       # Time in different power states (Tick)
system.mem_ctrl.power_state.pwrStateResidencyTicks::UNDEFINED   3832190000                       # Cumulative time (in ticks) in various power states (Tick)
system.membus.transDist::ReadReq               171605                       # Transaction distribution (Count)
system.membus.transDist::ReadResp              171605                       # Transaction distribution (Count)
system.membus.transDist::WriteReq               20090                       # Transaction distribution (Count)
system.membus.transDist::WriteResp              20090                       # Transaction distribution (Count)
system.membus.transDist::LockedRMWReadReq           16                       # Transaction distribution (Count)
system.membus.transDist::LockedRMWReadResp           16                       # Transaction distribution (Count)
system.membus.transDist::LockedRMWWriteReq           16                       # Transaction distribution (Count)
system.membus.transDist::LockedRMWWriteResp           16                       # Transaction distribution (Count)
system.membus.pktCount_system.cpu.icache_port::system.mem_ctrl.port        75210                       # Packet count per connected requestor and responder (Count)
system.membus.pktCount_system.cpu.icache_port::total        75210                       # Packet count per connected requestor and responder (Count)
system.membus.pktCount_system.cpu.dcache_port::system.mem_ctrl.port       308244                       # Packet count per connected requestor and responder (Count)
system.membus.pktCount_system.cpu.dcache_port::total       308244                       # Packet count per connected requestor and responder (Count)
system.membus.pktCount::total                  383454                       # Packet count per connected requestor and responder (Count)
system.membus.pktSize_system.cpu.icache_port::system.mem_ctrl.port      2406720                       # Cumulative packet size per connected requestor and responder (Byte)
system.membus.pktSize_system.cpu.icache_port::total      2406720                       # Cumulative packet size per connected requestor and responder (Byte)
system.membus.pktSize_system.cpu.dcache_port::system.mem_ctrl.port       763778                       # Cumulative packet size per connected requestor and responder (Byte)
system.membus.pktSize_system.cpu.dcache_port::total       763778                       # Cumulative packet size per connected requestor and responder (Byte)
system.membus.pktSize::total                  3170498                       # Cumulative packet size per connected requestor and responder (Byte)
system.membus.snoops                                0                       # Total snoops (Count)
system.membus.snoopTraffic                          0                       # Total snoop traffic (Byte)
system.membus.snoopFanout::samples             191727                       # Request fanout histogram (Count)
system.membus.snoopFanout::mean                     0                       # Request fanout histogram (Count)
system.membus.snoopFanout::stdev                    0                       # Request fanout histogram (Count)
system.membus.snoopFanout::underflows               0      0.00%      0.00% # Request fanout histogram (Count)
system.membus.snoopFanout::0                   191727    100.00%    100.00% # Request fanout histogram (Count)
system.membus.snoopFanout::1                        0      0.00%    100.00% # Request fanout histogram (Count)
system.membus.snoopFanout::overflows                0      0.00%    100.00% # Request fanout histogram (Count)
system.membus.snoopFanout::min_value                0                       # Request fanout histogram (Count)
system.membus.snoopFanout::max_value                0                       # Request fanout histogram (Count)
system.membus.snoopFanout::total               191727                       # Request fanout histogram (Count)
system.membus.power_state.pwrStateResidencyTicks::UNDEFINED   3832190000                       # Cumulative time (in ticks) in various power states (Tick)
system.membus.reqLayer2.occupancy           211833000                       # Layer occupancy (ticks) (Tick)
system.membus.reqLayer2.utilization               0.1                       # Layer utilization (Ratio)
system.membus.respLayer0.occupancy          205366861                       # Layer occupancy (ticks) (Tick)
system.membus.respLayer0.utilization              0.1                       # Layer utilization (Ratio)
system.membus.respLayer1.occupancy          346946411                       # Layer occupancy (ticks) (Tick)
system.membus.respLayer1.utilization              0.1                       # Layer utilization (Ratio)
system.membus.snoop_filter.totRequests              0                       # Total number of requests made to the snoop filter. (Count)
system.membus.snoop_filter.hitSingleRequests            0                       # Number of requests hitting in the snoop filter with a single holder of the requested data. (Count)
system.membus.snoop_filter.hitMultiRequests            0                       # Number of requests hitting in the snoop filter with multiple (>1) holders of the requested data. (Count)
system.membus.snoop_filter.totSnoops                0                       # Total number of snoops made to the snoop filter. (Count)
system.membus.snoop_filter.hitSingleSnoops            0                       # Number of snoops hitting in the snoop filter with a single holder of the requested data. (Count)
system.membus.snoop_filter.hitMultiSnoops            0                       # Number of snoops hitting in the snoop filter with multiple (>1) holders of the requested data. (Count)
system.workload.inst.arm                            0                       # number of arm instructions executed (Count)
system.workload.inst.quiesce                        0                       # number of quiesce instructions executed (Count)

---------- End Simulation Statistics   ----------
